
     RDKit          3D

 34 35  0  0  0  0  0  0  0  0999 V2000
   -7.6105    1.8154   -0.9609 Cl  0  0  0  0  0  0  0  0  0  0  0  0
   -6.0898    1.2884   -0.3542 C   0  0  0  0  0  0  0  0  0  0  0  0
   -5.5901    0.0425   -0.7250 C   0  0  0  0  0  0  0  0  0  0  0  0
   -4.3538   -0.3867   -0.2316 C   0  0  0  0  0  0  0  0  0  0  0  0
   -3.6058    0.4316    0.6268 C   0  0  0  0  0  0  0  0  0  0  0  0
   -2.3170    0.0102    1.1912 C   0  0  0  0  0  0  0  0  0  0  0  0
   -1.4053   -0.7124    0.5229 C   0  0  0  0  0  0  0  0  0  0  0  0
   -0.1289   -1.0707    1.1748 C   0  0  0  0  0  0  0  0  0  0  0  0
    0.5956   -1.8015    0.2939 O   0  0  0  0  0  0  0  0  0  0  0  0
    1.8840   -2.2180    0.7595 C   0  0  0  0  0  0  0  0  0  0  0  0
    2.9307   -1.2407    0.2845 C   0  0  0  0  0  0  0  0  0  0  0  0
    3.3805   -0.2175    1.1331 C   0  0  0  0  0  0  0  0  0  0  0  0
    4.3324    0.7050    0.6921 C   0  0  0  0  0  0  0  0  0  0  0  0
    4.8336    0.6080   -0.6117 C   0  0  0  0  0  0  0  0  0  0  0  0
    5.8330    1.5753   -1.0813 N   0  0  0  0  0  0  0  0  0  0  0  0
    6.2075    2.4505   -0.2876 O   0  0  0  0  0  0  0  0  0  0  0  0
    6.2454    1.4597   -2.2446 O   0  0  0  0  0  0  0  0  0  0  0  0
    4.3857   -0.4010   -1.4738 C   0  0  0  0  0  0  0  0  0  0  0  0
    3.4330   -1.3184   -1.0235 C   0  0  0  0  0  0  0  0  0  0  0  0
    0.1954   -0.7545    2.3071 O   0  0  0  0  0  0  0  0  0  0  0  0
   -4.1315    1.6757    1.0029 C   0  0  0  0  0  0  0  0  0  0  0  0
   -5.3669    2.1064    0.5098 C   0  0  0  0  0  0  0  0  0  0  0  0
   -6.1578   -0.6019   -1.3910 H   0  0  0  0  0  0  0  0  0  0  0  0
   -3.9935   -1.3719   -0.5179 H   0  0  0  0  0  0  0  0  0  0  0  0
   -2.1125    0.3423    2.2085 H   0  0  0  0  0  0  0  0  0  0  0  0
   -1.5471   -1.0423   -0.4984 H   0  0  0  0  0  0  0  0  0  0  0  0
    1.9176   -2.3498    1.8482 H   0  0  0  0  0  0  0  0  0  0  0  0
    2.0844   -3.2074    0.3319 H   0  0  0  0  0  0  0  0  0  0  0  0
    2.9825   -0.1301    2.1441 H   0  0  0  0  0  0  0  0  0  0  0  0
    4.6644    1.4881    1.3707 H   0  0  0  0  0  0  0  0  0  0  0  0
    4.7616   -0.4836   -2.4915 H   0  0  0  0  0  0  0  0  0  0  0  0
    3.0794   -2.0944   -1.7005 H   0  0  0  0  0  0  0  0  0  0  0  0
   -3.5798    2.3268    1.6784 H   0  0  0  0  0  0  0  0  0  0  0  0
   -5.7565    3.0769    0.8055 H   0  0  0  0  0  0  0  0  0  0  0  0
  1  2  1  0
  2  3  2  0
  3  4  1  0
  4  5  2  0
  5  6  1  0
  6  7  2  0
  7  8  1  0
  8  9  1  0
  9 10  1  0
 10 11  1  0
 11 12  2  0
 12 13  1  0
 13 14  2  0
 14 15  1  0
 15 16  1  0
 15 17  2  0
 14 18  1  0
 18 19  2  0
  8 20  2  0
  5 21  1  0
 21 22  2  0
 22  2  1  0
 19 11  1  0
  3 23  1  0
  4 24  1  0
  6 25  1  0
  7 26  1  0
 10 27  1  0
 10 28  1  0
 12 29  1  0
 13 30  1  0
 18 31  1  0
 19 32  1  0
 21 33  1  0
 22 34  1  0
M  CHG  2  15   1  16  -1
M  END
$$$$
