
     RDKit          3D

 32 33  0  0  0  0  0  0  0  0999 V2000
    7.5081    0.8595   -0.5867 Cl  0  0  0  0  0  0  0  0  0  0  0  0
    5.8909    0.3498   -0.2977 C   0  0  0  0  0  0  0  0  0  0  0  0
    5.3445    0.4674    0.9775 C   0  0  0  0  0  0  0  0  0  0  0  0
    4.0302    0.0514    1.2107 C   0  0  0  0  0  0  0  0  0  0  0  0
    3.2507   -0.4731    0.1701 C   0  0  0  0  0  0  0  0  0  0  0  0
    1.8845   -0.9218    0.4688 C   0  0  0  0  0  0  0  0  0  0  0  0
    0.8543   -0.8098   -0.3833 C   0  0  0  0  0  0  0  0  0  0  0  0
   -0.4885   -1.2760    0.0201 C   0  0  0  0  0  0  0  0  0  0  0  0
   -1.3293   -1.0651   -1.0204 O   0  0  0  0  0  0  0  0  0  0  0  0
   -2.6936   -1.4339   -0.7898 C   0  0  0  0  0  0  0  0  0  0  0  0
   -3.4797   -0.2158   -0.3764 C   0  0  0  0  0  0  0  0  0  0  0  0
   -3.7083    0.0535    0.9810 C   0  0  0  0  0  0  0  0  0  0  0  0
   -4.4173    1.1931    1.3672 C   0  0  0  0  0  0  0  0  0  0  0  0
   -4.8944    2.0726    0.3981 C   0  0  0  0  0  0  0  0  0  0  0  0
   -5.7670    3.4775    0.8732 Cl  0  0  0  0  0  0  0  0  0  0  0  0
   -4.6651    1.8248   -0.9537 C   0  0  0  0  0  0  0  0  0  0  0  0
   -3.9555    0.6853   -1.3401 C   0  0  0  0  0  0  0  0  0  0  0  0
   -0.7668   -1.7637    1.1028 O   0  0  0  0  0  0  0  0  0  0  0  0
    3.8214   -0.5993   -1.1043 C   0  0  0  0  0  0  0  0  0  0  0  0
    5.1362   -0.1842   -1.3391 C   0  0  0  0  0  0  0  0  0  0  0  0
    5.9324    0.8788    1.7936 H   0  0  0  0  0  0  0  0  0  0  0  0
    3.6184    0.1492    2.2135 H   0  0  0  0  0  0  0  0  0  0  0  0
    1.7293   -1.3449    1.4607 H   0  0  0  0  0  0  0  0  0  0  0  0
    0.9479   -0.3707   -1.3684 H   0  0  0  0  0  0  0  0  0  0  0  0
   -2.7951   -2.2470   -0.0602 H   0  0  0  0  0  0  0  0  0  0  0  0
   -3.0919   -1.8266   -1.7327 H   0  0  0  0  0  0  0  0  0  0  0  0
   -3.3274   -0.6217    1.7463 H   0  0  0  0  0  0  0  0  0  0  0  0
   -4.5882    1.3892    2.4222 H   0  0  0  0  0  0  0  0  0  0  0  0
   -5.0313    2.5146   -1.7093 H   0  0  0  0  0  0  0  0  0  0  0  0
   -3.7719    0.5059   -2.3975 H   0  0  0  0  0  0  0  0  0  0  0  0
    3.2582   -1.0324   -1.9274 H   0  0  0  0  0  0  0  0  0  0  0  0
    5.5644   -0.2865   -2.3327 H   0  0  0  0  0  0  0  0  0  0  0  0
  1  2  1  0
  2  3  2  0
  3  4  1  0
  4  5  2  0
  5  6  1  0
  6  7  2  0
  7  8  1  0
  8  9  1  0
  9 10  1  0
 10 11  1  0
 11 12  2  0
 12 13  1  0
 13 14  2  0
 14 15  1  0
 14 16  1  0
 16 17  2  0
  8 18  2  0
  5 19  1  0
 19 20  2  0
 20  2  1  0
 17 11  1  0
  3 21  1  0
  4 22  1  0
  6 23  1  0
  7 24  1  0
 10 25  1  0
 10 26  1  0
 12 27  1  0
 13 28  1  0
 16 29  1  0
 17 30  1  0
 19 31  1  0
 20 32  1  0
M  END
$$$$
