
     RDKit          3D

 69 72  0  0  0  0  0  0  0  0999 V2000
   -2.2876    2.4323    0.4268 N   0  0  0  0  0  0  0  0  0  0  0  0
   -3.1346    2.1145   -0.7444 C   0  0  1  0  0  0  0  0  0  0  0  0
   -2.6431    0.8730   -1.5445 C   0  0  0  0  0  0  0  0  0  0  0  0
   -2.8816    0.8342   -2.7607 O   0  0  0  0  0  0  0  0  0  0  0  0
   -2.0025   -0.1923   -0.9527 N   0  0  0  0  0  0  0  0  0  0  0  0
   -1.6721   -1.3569   -1.7610 C   0  0  0  0  0  0  0  0  0  0  0  0
   -0.8808   -2.2790   -0.8472 C   0  0  0  0  0  0  0  0  0  0  0  0
   -1.3700   -1.8904    0.5422 C   0  0  0  0  0  0  0  0  0  0  0  0
   -1.5427   -0.3710    0.4275 C   0  0  1  0  0  0  0  0  0  0  0  0
   -0.1925    0.3396    0.7022 C   0  0  0  0  0  0  0  0  0  0  0  0
    0.4248    0.9728   -0.1523 O   0  0  0  0  0  0  0  0  0  0  0  0
    0.2534    0.2150    2.0028 N   0  0  0  0  0  0  0  0  0  0  0  0
    1.5425    0.7151    2.4293 C   0  0  0  0  0  0  0  0  0  0  0  0
    2.5426   -0.4096    2.5176 C   0  0  0  0  0  0  0  0  0  0  0  0
    2.4510   -1.3362    3.5718 C   0  0  0  0  0  0  0  0  0  0  0  0
    3.3479   -2.4014    3.6589 C   0  0  0  0  0  0  0  0  0  0  0  0
    3.2139   -3.5232    4.9561 Cl  0  0  0  0  0  0  0  0  0  0  0  0
    4.3505   -2.5603    2.7067 C   0  0  0  0  0  0  0  0  0  0  0  0
    4.4554   -1.6489    1.6559 C   0  0  0  0  0  0  0  0  0  0  0  0
    3.5451   -0.5915    1.5536 C   0  0  0  0  0  0  0  0  0  0  0  0
    3.6779    0.3270    0.5459 O   0  0  0  0  0  0  0  0  0  0  0  0
    3.3250   -0.2228   -0.7296 C   0  0  0  0  0  0  0  0  0  0  0  0
    4.5541   -0.5941   -1.5554 C   0  0  0  0  0  0  0  0  0  0  0  0
    4.5542   -1.5209   -2.3615 O   0  0  0  0  0  0  0  0  0  0  0  0
    5.6398    0.2311   -1.3239 N   0  0  0  0  0  0  0  0  0  0  0  0
    6.9075    0.0336   -1.9437 C   0  0  0  0  0  0  0  0  0  0  0  0
    8.0990    0.8537   -1.5322 C   0  0  0  0  0  0  0  0  0  0  0  0
    8.0359   -0.6039   -1.1820 C   0  0  0  0  0  0  0  0  0  0  0  0
   -4.6401    2.0868   -0.3598 C   0  0  0  0  0  0  0  0  0  0  0  0
   -5.0599    0.9763    0.6249 C   0  0  0  0  0  0  0  0  0  0  0  0
   -5.7459   -0.1940   -0.0690 C   0  0  0  0  0  0  0  0  0  0  0  0
   -7.0233    0.2454   -0.7875 C   0  0  0  0  0  0  0  0  0  0  0  0
   -6.9793    1.6959   -1.2713 C   0  0  0  0  0  0  0  0  0  0  0  0
   -5.5561    2.1277   -1.6053 C   0  0  0  0  0  0  0  0  0  0  0  0
   -2.5649    3.3458    0.7855 H   0  0  0  0  0  0  0  0  0  0  0  0
   -1.3302    2.5627    0.0783 H   0  0  0  0  0  0  0  0  0  0  0  0
   -2.9903    2.9593   -1.4333 H   0  0  0  0  0  0  0  0  0  0  0  0
   -1.1030   -1.0647   -2.6493 H   0  0  0  0  0  0  0  0  0  0  0  0
   -2.6107   -1.8240   -2.0806 H   0  0  0  0  0  0  0  0  0  0  0  0
   -1.0415   -3.3361   -1.0764 H   0  0  0  0  0  0  0  0  0  0  0  0
    0.1919   -2.0713   -0.9391 H   0  0  0  0  0  0  0  0  0  0  0  0
   -0.6771   -2.2141    1.3237 H   0  0  0  0  0  0  0  0  0  0  0  0
   -2.3430   -2.3610    0.7313 H   0  0  0  0  0  0  0  0  0  0  0  0
   -2.2764   -0.0111    1.1470 H   0  0  0  0  0  0  0  0  0  0  0  0
   -0.2959   -0.3124    2.6668 H   0  0  0  0  0  0  0  0  0  0  0  0
    1.8827    1.5161    1.7656 H   0  0  0  0  0  0  0  0  0  0  0  0
    1.4070    1.1622    3.4208 H   0  0  0  0  0  0  0  0  0  0  0  0
    1.6785   -1.2247    4.3291 H   0  0  0  0  0  0  0  0  0  0  0  0
    5.0555   -3.3844    2.7782 H   0  0  0  0  0  0  0  0  0  0  0  0
    5.2545   -1.7692    0.9293 H   0  0  0  0  0  0  0  0  0  0  0  0
    2.6657   -1.0958   -0.6415 H   0  0  0  0  0  0  0  0  0  0  0  0
    2.7876    0.5516   -1.2868 H   0  0  0  0  0  0  0  0  0  0  0  0
    5.5477    0.9141   -0.5778 H   0  0  0  0  0  0  0  0  0  0  0  0
    6.8317   -0.2109   -3.0021 H   0  0  0  0  0  0  0  0  0  0  0  0
    7.9880    1.5729   -0.7299 H   0  0  0  0  0  0  0  0  0  0  0  0
    8.7912    1.1598   -2.3084 H   0  0  0  0  0  0  0  0  0  0  0  0
    7.8725   -0.8736   -0.1457 H   0  0  0  0  0  0  0  0  0  0  0  0
    8.6795   -1.2889   -1.7221 H   0  0  0  0  0  0  0  0  0  0  0  0
   -4.8275    3.0318    0.1739 H   0  0  0  0  0  0  0  0  0  0  0  0
   -5.7698    1.4036    1.3469 H   0  0  0  0  0  0  0  0  0  0  0  0
   -4.2228    0.6247    1.2272 H   0  0  0  0  0  0  0  0  0  0  0  0
   -5.0573   -0.6473   -0.7917 H   0  0  0  0  0  0  0  0  0  0  0  0
   -5.9883   -0.9762    0.6594 H   0  0  0  0  0  0  0  0  0  0  0  0
   -7.1964   -0.4256   -1.6377 H   0  0  0  0  0  0  0  0  0  0  0  0
   -7.8862    0.1232   -0.1217 H   0  0  0  0  0  0  0  0  0  0  0  0
   -7.6277    1.8107   -2.1473 H   0  0  0  0  0  0  0  0  0  0  0  0
   -7.3854    2.3551   -0.4937 H   0  0  0  0  0  0  0  0  0  0  0  0
   -5.5633    3.1447   -2.0154 H   0  0  0  0  0  0  0  0  0  0  0  0
   -5.1848    1.4752   -2.4007 H   0  0  0  0  0  0  0  0  0  0  0  0
  1  2  1  0
  2  3  1  0
  3  4  2  0
  3  5  1  0
  5  6  1  0
  6  7  1  0
  7  8  1  0
  8  9  1  0
  9 10  1  0
 10 11  2  0
 10 12  1  0
 12 13  1  0
 13 14  1  0
 14 15  2  0
 15 16  1  0
 16 17  1  0
 16 18  2  0
 18 19  1  0
 19 20  2  0
 20 21  1  0
 21 22  1  0
 22 23  1  0
 23 24  2  0
 23 25  1  0
 25 26  1  0
 26 27  1  0
 27 28  1  0
  2 29  1  0
 29 30  1  0
 30 31  1  0
 31 32  1  0
 32 33  1  0
 33 34  1  0
  9  5  1  0
 20 14  1  0
 28 26  1  0
 34 29  1  0
  1 35  1  0
  1 36  1  0
  2 37  1  6
  6 38  1  0
  6 39  1  0
  7 40  1  0
  7 41  1  0
  8 42  1  0
  8 43  1  0
  9 44  1  1
 12 45  1  0
 13 46  1  0
 13 47  1  0
 15 48  1  0
 18 49  1  0
 19 50  1  0
 22 51  1  0
 22 52  1  0
 25 53  1  0
 26 54  1  0
 27 55  1  0
 27 56  1  0
 28 57  1  0
 28 58  1  0
 29 59  1  0
 30 60  1  0
 30 61  1  0
 31 62  1  0
 31 63  1  0
 32 64  1  0
 32 65  1  0
 33 66  1  0
 33 67  1  0
 34 68  1  0
 34 69  1  0
M  END
$$$$
