
     RDKit          3D

 66 68  0  0  0  0  0  0  0  0999 V2000
   -0.8461   -3.1960    0.2449 C   0  0  0  0  0  0  0  0  0  0  0  0
   -2.0789   -2.3023    0.1608 C   0  0  0  0  0  0  0  0  0  0  0  0
   -2.1634   -1.0842    1.1464 C   0  0  0  0  0  0  0  0  0  0  0  0
   -1.5149   -1.4406    2.5213 C   0  0  0  0  0  0  0  0  0  0  0  0
   -1.4978   -0.3423    3.5852 C   0  0  0  0  0  0  0  0  0  0  0  0
   -1.5737    0.2219    0.5299 C   0  0  0  0  0  0  0  0  0  0  0  0
   -0.1547    0.1525    0.0275 C   0  0  0  0  0  0  0  0  0  0  0  0
    0.2701   -0.1124   -1.2601 C   0  0  0  0  0  0  0  0  0  0  0  0
    1.6886   -0.0642   -1.3874 C   0  0  0  0  0  0  0  0  0  0  0  0
    2.3157    0.2616   -0.1988 C   0  0  0  0  0  0  0  0  0  0  0  0
    3.7310    0.4133    0.0943 C   0  0  0  0  0  0  0  0  0  0  0  0
    4.2190    0.7203    1.1774 O   0  0  0  0  0  0  0  0  0  0  0  0
    4.4675    0.1231   -1.0549 O   0  0  0  0  0  0  0  0  0  0  0  0
    5.8357    0.3439   -0.8940 C   0  0  0  0  0  0  0  0  0  0  0  0
    6.6809   -0.7524   -0.7390 C   0  0  0  0  0  0  0  0  0  0  0  0
    8.0553   -0.5362   -0.6125 C   0  0  0  0  0  0  0  0  0  0  0  0
    8.5693    0.7697   -0.6538 C   0  0  0  0  0  0  0  0  0  0  0  0
   10.0319    1.0043   -0.5322 C   0  0  0  0  0  0  0  0  0  0  0  0
   10.7967    0.2798    0.2196 N   0  0  0  0  0  0  0  0  0  0  0  0
   10.6259    2.0103   -1.2324 N   0  0  0  0  0  0  0  0  0  0  0  0
    7.7133    1.8614   -0.8347 C   0  0  0  0  0  0  0  0  0  0  0  0
    6.3478    1.6390   -0.9571 C   0  0  0  0  0  0  0  0  0  0  0  0
    5.5248    2.6795   -1.1478 F   0  0  0  0  0  0  0  0  0  0  0  0
    1.1692    0.5172    1.0474 S   0  0  0  0  0  0  0  0  0  0  0  0
   -3.6867   -0.8433    1.3641 C   0  0  0  0  0  0  0  0  0  0  0  0
   -4.2428   -0.9195    2.4570 O   0  0  0  0  0  0  0  0  0  0  0  0
   -4.4173   -0.5574    0.2333 N   0  0  0  0  0  0  0  0  0  0  0  0
   -5.8440   -0.2990    0.2802 C   0  0  1  0  0  0  0  0  0  0  0  0
   -6.1746    1.1097    0.8165 C   0  0  0  0  0  0  0  0  0  0  0  0
   -5.2586    2.2463    0.3536 C   0  0  0  0  0  0  0  0  0  0  0  0
   -5.1121    2.3328   -1.1359 C   0  0  0  0  0  0  0  0  0  0  0  0
   -4.0691    2.2079   -1.7550 O   0  0  0  0  0  0  0  0  0  0  0  0
   -6.2835    2.5504   -1.7598 O   0  0  0  0  0  0  0  0  0  0  0  0
   -6.4067   -0.5463   -1.0780 C   0  0  0  0  0  0  0  0  0  0  0  0
   -5.7815   -0.5599   -2.2396 N   0  0  0  0  0  0  0  0  0  0  0  0
   -6.7414   -0.8197   -3.1860 N   0  0  0  0  0  0  0  0  0  0  0  0
   -7.9326   -0.9702   -2.6255 N   0  0  0  0  0  0  0  0  0  0  0  0
   -7.7263   -0.8119   -1.3122 N   0  0  0  0  0  0  0  0  0  0  0  0
    0.0862   -2.6364    0.1537 H   0  0  0  0  0  0  0  0  0  0  0  0
   -0.8250   -3.7542    1.1861 H   0  0  0  0  0  0  0  0  0  0  0  0
   -0.8699   -3.9333   -0.5647 H   0  0  0  0  0  0  0  0  0  0  0  0
   -2.9446   -2.9600    0.3229 H   0  0  0  0  0  0  0  0  0  0  0  0
   -2.1779   -1.9458   -0.8725 H   0  0  0  0  0  0  0  0  0  0  0  0
   -2.0356   -2.3092    2.9464 H   0  0  0  0  0  0  0  0  0  0  0  0
   -0.4749   -1.7529    2.3774 H   0  0  0  0  0  0  0  0  0  0  0  0
   -2.4965    0.0278    3.8257 H   0  0  0  0  0  0  0  0  0  0  0  0
   -1.0662   -0.7389    4.5107 H   0  0  0  0  0  0  0  0  0  0  0  0
   -0.8854    0.5111    3.2866 H   0  0  0  0  0  0  0  0  0  0  0  0
   -1.6789    1.0549    1.2369 H   0  0  0  0  0  0  0  0  0  0  0  0
   -2.1808    0.5346   -0.3298 H   0  0  0  0  0  0  0  0  0  0  0  0
   -0.4065   -0.3337   -2.0779 H   0  0  0  0  0  0  0  0  0  0  0  0
    2.2168   -0.2518   -2.3152 H   0  0  0  0  0  0  0  0  0  0  0  0
    6.2797   -1.7614   -0.7147 H   0  0  0  0  0  0  0  0  0  0  0  0
    8.7197   -1.3905   -0.5061 H   0  0  0  0  0  0  0  0  0  0  0  0
   10.2580   -0.4132    0.7466 H   0  0  0  0  0  0  0  0  0  0  0  0
   10.2751    2.1729   -2.1686 H   0  0  0  0  0  0  0  0  0  0  0  0
   11.6376    1.9177   -1.2083 H   0  0  0  0  0  0  0  0  0  0  0  0
    8.0929    2.8778   -0.8634 H   0  0  0  0  0  0  0  0  0  0  0  0
   -3.9759   -0.5376   -0.6818 H   0  0  0  0  0  0  0  0  0  0  0  0
   -6.2913   -1.0329    0.9641 H   0  0  0  0  0  0  0  0  0  0  0  0
   -6.1114    1.0825    1.9125 H   0  0  0  0  0  0  0  0  0  0  0  0
   -7.2175    1.3620    0.5846 H   0  0  0  0  0  0  0  0  0  0  0  0
   -5.6351    3.2089    0.7180 H   0  0  0  0  0  0  0  0  0  0  0  0
   -4.2586    2.1260    0.7858 H   0  0  0  0  0  0  0  0  0  0  0  0
   -6.0645    2.4787   -2.7152 H   0  0  0  0  0  0  0  0  0  0  0  0
   -8.5054   -0.8898   -0.6698 H   0  0  0  0  0  0  0  0  0  0  0  0
  1  2  1  0
  2  3  1  0
  3  4  1  0
  4  5  1  0
  3  6  1  0
  6  7  1  0
  7  8  2  0
  8  9  1  0
  9 10  2  0
 10 11  1  0
 11 12  2  0
 11 13  1  0
 13 14  1  0
 14 15  2  0
 15 16  1  0
 16 17  2  0
 17 18  1  0
 18 19  2  3
 18 20  1  0
 17 21  1  0
 21 22  2  0
 22 23  1  0
 10 24  1  0
  3 25  1  0
 25 26  2  0
 25 27  1  0
 27 28  1  0
 28 29  1  0
 29 30  1  0
 30 31  1  0
 31 32  2  0
 31 33  1  0
 28 34  1  0
 34 35  2  0
 35 36  1  0
 36 37  2  0
 37 38  1  0
 24  7  1  0
 38 34  1  0
 22 14  1  0
  1 39  1  0
  1 40  1  0
  1 41  1  0
  2 42  1  0
  2 43  1  0
  4 44  1  0
  4 45  1  0
  5 46  1  0
  5 47  1  0
  5 48  1  0
  6 49  1  0
  6 50  1  0
  8 51  1  0
  9 52  1  0
 15 53  1  0
 16 54  1  0
 19 55  1  0
 20 56  1  0
 20 57  1  0
 21 58  1  0
 27 59  1  0
 28 60  1  1
 29 61  1  0
 29 62  1  0
 30 63  1  0
 30 64  1  0
 33 65  1  0
 38 66  1  0
M  END
$$$$
