
     RDKit          3D

106110  0  0  0  0  0  0  0  0999 V2000
   -7.4609   -1.5568    1.4315 O   0  0  0  0  0  0  0  0  0  0  0  0
   -6.5692   -0.7777    1.0965 C   0  0  0  0  0  0  0  0  0  0  0  0
   -6.8789    0.6621    0.7121 C   0  0  0  0  0  0  0  0  0  0  0  0
   -8.3608    1.0025    0.8886 C   0  0  0  0  0  0  0  0  0  0  0  0
   -8.7100    2.4376    0.4832 C   0  0  0  0  0  0  0  0  0  0  0  0
   -8.0049    3.5390    1.2792 C   0  0  0  0  0  0  0  0  0  0  0  0
   -8.3394    3.5180    2.7704 C   0  0  0  0  0  0  0  0  0  0  0  0
   -7.6577    4.5760    3.4902 N   0  0  0  0  0  0  0  0  0  0  0  0
   -8.0901    5.8621    3.6428 C   0  0  0  0  0  0  0  0  0  0  0  0
   -7.1180    6.4725    4.4015 C   0  0  0  0  0  0  0  0  0  0  0  0
   -6.1153    5.5894    4.7109 N   0  0  0  0  0  0  0  0  0  0  0  0
   -6.4710    4.4538    4.1541 C   0  0  0  0  0  0  0  0  0  0  0  0
   -5.2319   -1.1550    1.0710 N   0  0  0  0  0  0  0  0  0  0  0  0
   -4.1835   -0.4513    0.3255 C   0  0  0  0  0  0  0  0  0  0  0  0
   -3.9196   -1.1520   -1.0180 C   0  0  0  0  0  0  0  0  0  0  0  0
   -3.7125   -2.5991   -0.8583 N   0  0  0  0  0  0  0  0  0  0  0  0
   -3.0291   -3.3461   -1.8037 C   0  0  0  0  0  0  0  0  0  0  0  0
   -3.0101   -4.5705   -1.8225 O   0  0  0  0  0  0  0  0  0  0  0  0
   -2.3774   -2.5642   -2.7051 O   0  0  0  0  0  0  0  0  0  0  0  0
   -1.6205   -3.2404   -3.7345 C   0  0  1  0  0  0  0  0  0  0  0  0
   -1.6520   -2.3403   -4.9740 C   0  0  0  0  0  0  0  0  0  0  0  0
   -1.0604   -0.9295   -4.8614 C   0  0  0  0  0  0  0  0  0  0  0  0
    0.2106   -0.7336   -4.0415 C   0  0  0  0  0  0  0  0  0  0  0  0
    1.4951   -1.4222   -4.5292 C   0  0  1  0  0  0  0  0  0  0  0  0
    2.4028   -1.4261   -3.4046 O   0  0  0  0  0  0  0  0  0  0  0  0
    3.7317   -1.3455   -3.6826 C   0  0  0  0  0  0  0  0  0  0  0  0
    4.1922   -1.2720   -4.8147 O   0  0  0  0  0  0  0  0  0  0  0  0
    4.5001   -1.3515   -2.5368 N   0  0  0  0  0  0  0  0  0  0  0  0
    5.9476   -1.1768   -2.6364 C   0  0  0  0  0  0  0  0  0  0  0  0
    6.5289   -0.4424   -1.4232 C   0  0  0  0  0  0  0  0  0  0  0  0
    6.1643   -1.0683   -0.1452 N   0  0  0  0  0  0  0  0  0  0  0  0
    7.0134   -0.8901    0.9386 C   0  0  0  0  0  0  0  0  0  0  0  0
    8.0280   -0.1987    0.8573 O   0  0  0  0  0  0  0  0  0  0  0  0
    6.6314   -1.5974    2.2339 C   0  0  0  0  0  0  0  0  0  0  0  0
    7.6329   -1.3936    3.3765 C   0  0  0  0  0  0  0  0  0  0  0  0
    7.3139   -0.2045    4.2934 C   0  0  0  0  0  0  0  0  0  0  0  0
    7.3454    1.1564    3.5984 C   0  0  0  0  0  0  0  0  0  0  0  0
    7.1326    2.2922    4.5982 C   0  0  0  0  0  0  0  0  0  0  0  0
    7.0855    3.5885    3.9535 N   0  0  0  0  0  0  0  0  0  0  0  0
    8.1575    4.3669    3.6207 C   0  0  0  0  0  0  0  0  0  0  0  0
    7.6115    5.4945    3.0525 C   0  0  0  0  0  0  0  0  0  0  0  0
    6.2419    5.4216    3.0437 N   0  0  0  0  0  0  0  0  0  0  0  0
    5.9542    4.2636    3.5944 C   0  0  0  0  0  0  0  0  0  0  0  0
    4.9461   -1.8885   -0.1365 C   0  0  0  0  0  0  0  0  0  0  0  0
    3.9244   -1.4554   -1.1968 C   0  0  0  0  0  0  0  0  0  0  0  0
    1.3695   -2.8440   -5.0878 C   0  0  0  0  0  0  0  0  0  0  0  0
    0.8737   -3.9470   -4.1454 C   0  0  0  0  0  0  0  0  0  0  0  0
   -0.2464   -3.6236   -3.1613 C   0  0  0  0  0  0  0  0  0  0  0  0
   -4.6618   -3.3051    0.0146 C   0  0  0  0  0  0  0  0  0  0  0  0
   -4.8996   -2.5582    1.3333 C   0  0  0  0  0  0  0  0  0  0  0  0
   -6.2676    1.3146    1.3436 H   0  0  0  0  0  0  0  0  0  0  0  0
   -6.6036    0.8099   -0.3381 H   0  0  0  0  0  0  0  0  0  0  0  0
   -8.9595    0.3196    0.2712 H   0  0  0  0  0  0  0  0  0  0  0  0
   -8.6694    0.8159    1.9238 H   0  0  0  0  0  0  0  0  0  0  0  0
   -8.4744    2.5727   -0.5796 H   0  0  0  0  0  0  0  0  0  0  0  0
   -9.7948    2.5710    0.5781 H   0  0  0  0  0  0  0  0  0  0  0  0
   -8.3030    4.5085    0.8589 H   0  0  0  0  0  0  0  0  0  0  0  0
   -6.9201    3.4757    1.1340 H   0  0  0  0  0  0  0  0  0  0  0  0
   -8.0433    2.5723    3.2360 H   0  0  0  0  0  0  0  0  0  0  0  0
   -9.4150    3.6494    2.9340 H   0  0  0  0  0  0  0  0  0  0  0  0
   -9.0151    6.2269    3.2186 H   0  0  0  0  0  0  0  0  0  0  0  0
   -7.0862    7.4991    4.7416 H   0  0  0  0  0  0  0  0  0  0  0  0
   -5.9123    3.5283    4.2006 H   0  0  0  0  0  0  0  0  0  0  0  0
   -3.2776   -0.4783    0.9430 H   0  0  0  0  0  0  0  0  0  0  0  0
   -4.4333    0.5985    0.1591 H   0  0  0  0  0  0  0  0  0  0  0  0
   -4.7816   -1.0287   -1.6848 H   0  0  0  0  0  0  0  0  0  0  0  0
   -3.0543   -0.6892   -1.5025 H   0  0  0  0  0  0  0  0  0  0  0  0
   -2.1417   -4.1634   -4.0227 H   0  0  0  0  0  0  0  0  0  0  0  0
   -2.7071   -2.2023   -5.2524 H   0  0  0  0  0  0  0  0  0  0  0  0
   -1.2225   -2.8717   -5.8271 H   0  0  0  0  0  0  0  0  0  0  0  0
   -0.8992   -0.5398   -5.8745 H   0  0  0  0  0  0  0  0  0  0  0  0
   -1.8301   -0.2830   -4.4183 H   0  0  0  0  0  0  0  0  0  0  0  0
    0.0143   -0.9481   -2.9865 H   0  0  0  0  0  0  0  0  0  0  0  0
    0.4241    0.3457   -4.0241 H   0  0  0  0  0  0  0  0  0  0  0  0
    1.9031   -0.7865   -5.3269 H   0  0  0  0  0  0  0  0  0  0  0  0
    6.3794   -2.1823   -2.7054 H   0  0  0  0  0  0  0  0  0  0  0  0
    6.2040   -0.6424   -3.5572 H   0  0  0  0  0  0  0  0  0  0  0  0
    6.1405    0.5828   -1.3875 H   0  0  0  0  0  0  0  0  0  0  0  0
    7.6184   -0.3814   -1.5160 H   0  0  0  0  0  0  0  0  0  0  0  0
    6.5850   -2.6698    2.0083 H   0  0  0  0  0  0  0  0  0  0  0  0
    5.6378   -1.2665    2.5530 H   0  0  0  0  0  0  0  0  0  0  0  0
    8.6581   -1.3072    2.9990 H   0  0  0  0  0  0  0  0  0  0  0  0
    7.6130   -2.2938    4.0044 H   0  0  0  0  0  0  0  0  0  0  0  0
    6.3292   -0.3567    4.7525 H   0  0  0  0  0  0  0  0  0  0  0  0
    8.0423   -0.2049    5.1139 H   0  0  0  0  0  0  0  0  0  0  0  0
    8.3087    1.2923    3.0920 H   0  0  0  0  0  0  0  0  0  0  0  0
    6.5666    1.2028    2.8284 H   0  0  0  0  0  0  0  0  0  0  0  0
    6.1909    2.1596    5.1438 H   0  0  0  0  0  0  0  0  0  0  0  0
    7.9422    2.3228    5.3361 H   0  0  0  0  0  0  0  0  0  0  0  0
    9.1801    4.0671    3.7999 H   0  0  0  0  0  0  0  0  0  0  0  0
    8.1309    6.3548    2.6509 H   0  0  0  0  0  0  0  0  0  0  0  0
    4.9572    3.8739    3.7531 H   0  0  0  0  0  0  0  0  0  0  0  0
    4.4751   -1.8671    0.8493 H   0  0  0  0  0  0  0  0  0  0  0  0
    5.2672   -2.9195   -0.3286 H   0  0  0  0  0  0  0  0  0  0  0  0
    3.5288   -0.4631   -0.9484 H   0  0  0  0  0  0  0  0  0  0  0  0
    3.0824   -2.1558   -1.2078 H   0  0  0  0  0  0  0  0  0  0  0  0
    2.3638   -3.1652   -5.4280 H   0  0  0  0  0  0  0  0  0  0  0  0
    0.7766   -2.8256   -6.0056 H   0  0  0  0  0  0  0  0  0  0  0  0
    1.7340   -4.2855   -3.5518 H   0  0  0  0  0  0  0  0  0  0  0  0
    0.5787   -4.8122   -4.7523 H   0  0  0  0  0  0  0  0  0  0  0  0
   -0.3981   -4.5224   -2.5463 H   0  0  0  0  0  0  0  0  0  0  0  0
    0.0975   -2.8912   -2.4245 H   0  0  0  0  0  0  0  0  0  0  0  0
   -5.6005   -3.3925   -0.5463 H   0  0  0  0  0  0  0  0  0  0  0  0
   -4.3037   -4.3188    0.2229 H   0  0  0  0  0  0  0  0  0  0  0  0
   -3.9858   -2.5668    1.9392 H   0  0  0  0  0  0  0  0  0  0  0  0
   -5.6848   -3.0521    1.9140 H   0  0  0  0  0  0  0  0  0  0  0  0
  1  2  2  0
  2  3  1  0
  3  4  1  0
  4  5  1  0
  5  6  1  0
  6  7  1  0
  7  8  1  0
  8  9  1  0
  9 10  2  0
 10 11  1  0
 11 12  2  0
  2 13  1  0
 13 14  1  0
 14 15  1  0
 15 16  1  0
 16 17  1  0
 17 18  2  0
 17 19  1  0
 19 20  1  0
 20 21  1  0
 21 22  1  0
 22 23  1  0
 23 24  1  0
 24 25  1  0
 25 26  1  0
 26 27  2  0
 26 28  1  0
 28 29  1  0
 29 30  1  0
 30 31  1  0
 31 32  1  0
 32 33  2  0
 32 34  1  0
 34 35  1  0
 35 36  1  0
 36 37  1  0
 37 38  1  0
 38 39  1  0
 39 40  1  0
 40 41  2  0
 41 42  1  0
 42 43  2  0
 31 44  1  0
 44 45  1  0
 24 46  1  0
 46 47  1  0
 47 48  1  0
 16 49  1  0
 49 50  1  0
 12  8  1  0
 50 13  1  0
 48 20  1  0
 45 28  1  0
 43 39  1  0
  3 51  1  0
  3 52  1  0
  4 53  1  0
  4 54  1  0
  5 55  1  0
  5 56  1  0
  6 57  1  0
  6 58  1  0
  7 59  1  0
  7 60  1  0
  9 61  1  0
 10 62  1  0
 12 63  1  0
 14 64  1  0
 14 65  1  0
 15 66  1  0
 15 67  1  0
 20 68  1  6
 21 69  1  0
 21 70  1  0
 22 71  1  0
 22 72  1  0
 23 73  1  0
 23 74  1  0
 24 75  1  6
 29 76  1  0
 29 77  1  0
 30 78  1  0
 30 79  1  0
 34 80  1  0
 34 81  1  0
 35 82  1  0
 35 83  1  0
 36 84  1  0
 36 85  1  0
 37 86  1  0
 37 87  1  0
 38 88  1  0
 38 89  1  0
 40 90  1  0
 41 91  1  0
 43 92  1  0
 44 93  1  0
 44 94  1  0
 45 95  1  0
 45 96  1  0
 46 97  1  0
 46 98  1  0
 47 99  1  0
 47100  1  0
 48101  1  0
 48102  1  0
 49103  1  0
 49104  1  0
 50105  1  0
 50106  1  0
M  END
$$$$
