
     RDKit          3D

 76 78  0  0  0  0  0  0  0  0999 V2000
    8.4750    1.7245   -0.3257 N   0  0  0  0  0  0  0  0  0  0  0  0
    7.6703    1.8895   -1.3158 C   0  0  0  0  0  0  0  0  0  0  0  0
    7.8841    2.8719   -2.2207 N   0  0  0  0  0  0  0  0  0  0  0  0
    6.5719    1.1067   -1.5603 N   0  0  0  0  0  0  0  0  0  0  0  0
    5.3708    1.6715   -2.1965 C   0  0  0  0  0  0  0  0  0  0  0  0
    4.2134    0.6838   -2.2115 C   0  0  0  0  0  0  0  0  0  0  0  0
    3.8439    0.2369   -0.7942 C   0  0  0  0  0  0  0  0  0  0  0  0
    3.1741   -1.0314   -0.8317 O   0  0  0  0  0  0  0  0  0  0  0  0
    1.8590   -0.9687   -1.3829 C   0  0  0  0  0  0  0  0  0  0  0  0
    1.0976   -2.2276   -0.9727 C   0  0  0  0  0  0  0  0  0  0  0  0
    0.7682   -2.2577    0.5399 C   0  0  0  0  0  0  0  0  0  0  0  0
    0.5568   -3.6886    1.0781 C   0  0  0  0  0  0  0  0  0  0  0  0
   -0.8834   -4.1985    1.0419 C   0  0  0  0  0  0  0  0  0  0  0  0
   -1.7666   -3.3800    0.1217 C   0  0  0  0  0  0  0  0  0  0  0  0
   -1.7159   -1.8963    0.4813 C   0  0  0  0  0  0  0  0  0  0  0  0
   -0.3903   -1.4039    0.8767 N   0  0  0  0  0  0  0  0  0  0  0  0
   -0.1474   -0.1469    1.4280 C   0  0  0  0  0  0  0  0  0  0  0  0
    1.0086    0.2734    1.5762 O   0  0  0  0  0  0  0  0  0  0  0  0
   -1.2944    0.7658    1.9424 C   0  0  2  0  0  0  0  0  0  0  0  0
   -1.5489    0.4979    3.4275 C   0  0  0  0  0  0  0  0  0  0  0  0
   -2.2807   -0.7738    3.7233 C   0  0  0  0  0  0  0  0  0  0  0  0
   -1.7929   -1.8879    3.8147 O   0  0  0  0  0  0  0  0  0  0  0  0
   -3.6006   -0.5925    3.9220 O   0  0  0  0  0  0  0  0  0  0  0  0
   -2.4513    0.8145    1.0212 N   0  0  0  0  0  0  0  0  0  0  0  0
   -3.4306    1.8435    1.3776 C   0  0  0  0  0  0  0  0  0  0  0  0
   -4.6428    1.8626    0.4232 C   0  0  0  0  0  0  0  0  0  0  0  0
   -5.4705    0.5629    0.5066 C   0  0  0  0  0  0  0  0  0  0  0  0
   -6.3273    0.3029   -0.7361 C   0  0  0  0  0  0  0  0  0  0  0  0
   -6.7270    1.5933   -1.4373 C   0  0  0  0  0  0  0  0  0  0  0  0
   -5.5071    2.3915   -1.9010 C   0  0  0  0  0  0  0  0  0  0  0  0
   -4.2655    2.1754   -1.0303 C   0  0  0  0  0  0  0  0  0  0  0  0
    5.0750    0.0899    0.1063 C   0  0  0  0  0  0  0  0  0  0  0  0
    6.3397   -0.0868   -0.7236 C   0  0  0  0  0  0  0  0  0  0  0  0
    9.1978    2.4420   -0.3413 H   0  0  0  0  0  0  0  0  0  0  0  0
    7.6868    2.5608   -3.1637 H   0  0  0  0  0  0  0  0  0  0  0  0
    8.8065    3.2825   -2.1763 H   0  0  0  0  0  0  0  0  0  0  0  0
    5.0669    2.5807   -1.6625 H   0  0  0  0  0  0  0  0  0  0  0  0
    5.5948    1.9527   -3.2317 H   0  0  0  0  0  0  0  0  0  0  0  0
    3.3410    1.1415   -2.6931 H   0  0  0  0  0  0  0  0  0  0  0  0
    4.4709   -0.1871   -2.8288 H   0  0  0  0  0  0  0  0  0  0  0  0
    3.1752    0.9699   -0.3250 H   0  0  0  0  0  0  0  0  0  0  0  0
    1.3297   -0.0676   -1.0577 H   0  0  0  0  0  0  0  0  0  0  0  0
    1.9441   -0.9410   -2.4747 H   0  0  0  0  0  0  0  0  0  0  0  0
    1.7207   -3.0948   -1.2230 H   0  0  0  0  0  0  0  0  0  0  0  0
    0.1890   -2.2886   -1.5781 H   0  0  0  0  0  0  0  0  0  0  0  0
    1.6531   -1.8832    1.0692 H   0  0  0  0  0  0  0  0  0  0  0  0
    0.8843   -3.7164    2.1265 H   0  0  0  0  0  0  0  0  0  0  0  0
    1.2146   -4.3922    0.5537 H   0  0  0  0  0  0  0  0  0  0  0  0
   -0.8972   -5.2525    0.7415 H   0  0  0  0  0  0  0  0  0  0  0  0
   -1.2997   -4.1652    2.0567 H   0  0  0  0  0  0  0  0  0  0  0  0
   -1.4518   -3.5335   -0.9160 H   0  0  0  0  0  0  0  0  0  0  0  0
   -2.8028   -3.7340    0.1742 H   0  0  0  0  0  0  0  0  0  0  0  0
   -2.4238   -1.7127    1.2902 H   0  0  0  0  0  0  0  0  0  0  0  0
   -2.0428   -1.3174   -0.3895 H   0  0  0  0  0  0  0  0  0  0  0  0
   -0.8520    1.7730    1.8925 H   0  0  0  0  0  0  0  0  0  0  0  0
   -0.5994    0.4498    3.9765 H   0  0  0  0  0  0  0  0  0  0  0  0
   -2.0976    1.3309    3.8837 H   0  0  0  0  0  0  0  0  0  0  0  0
   -3.9370   -1.4950    4.1025 H   0  0  0  0  0  0  0  0  0  0  0  0
   -2.0917    1.0170    0.0868 H   0  0  0  0  0  0  0  0  0  0  0  0
   -3.8090    1.6792    2.3918 H   0  0  0  0  0  0  0  0  0  0  0  0
   -2.9519    2.8303    1.3625 H   0  0  0  0  0  0  0  0  0  0  0  0
   -5.2887    2.6824    0.7706 H   0  0  0  0  0  0  0  0  0  0  0  0
   -4.8324   -0.3136    0.6696 H   0  0  0  0  0  0  0  0  0  0  0  0
   -6.1213    0.6265    1.3882 H   0  0  0  0  0  0  0  0  0  0  0  0
   -5.7641   -0.3257   -1.4377 H   0  0  0  0  0  0  0  0  0  0  0  0
   -7.2190   -0.2682   -0.4540 H   0  0  0  0  0  0  0  0  0  0  0  0
   -7.3225    2.2063   -0.7490 H   0  0  0  0  0  0  0  0  0  0  0  0
   -7.3717    1.3757   -2.2963 H   0  0  0  0  0  0  0  0  0  0  0  0
   -5.2602    2.1247   -2.9359 H   0  0  0  0  0  0  0  0  0  0  0  0
   -5.7694    3.4564   -1.9154 H   0  0  0  0  0  0  0  0  0  0  0  0
   -3.6836    1.3462   -1.4523 H   0  0  0  0  0  0  0  0  0  0  0  0
   -3.6271    3.0651   -1.0841 H   0  0  0  0  0  0  0  0  0  0  0  0
    4.9586   -0.7562    0.7934 H   0  0  0  0  0  0  0  0  0  0  0  0
    5.1818    0.9947    0.7185 H   0  0  0  0  0  0  0  0  0  0  0  0
    7.1831   -0.2953   -0.0561 H   0  0  0  0  0  0  0  0  0  0  0  0
    6.2525   -0.9656   -1.3745 H   0  0  0  0  0  0  0  0  0  0  0  0
  1  2  2  3
  2  3  1  0
  2  4  1  0
  4  5  1  0
  5  6  1  0
  6  7  1  0
  7  8  1  0
  8  9  1  0
  9 10  1  0
 10 11  1  0
 11 12  1  0
 12 13  1  0
 13 14  1  0
 14 15  1  0
 15 16  1  0
 16 17  1  0
 17 18  2  0
 17 19  1  0
 19 20  1  0
 20 21  1  0
 21 22  2  0
 21 23  1  0
 19 24  1  0
 24 25  1  0
 25 26  1  0
 26 27  1  0
 27 28  1  0
 28 29  1  0
 29 30  1  0
 30 31  1  0
  7 32  1  0
 32 33  1  0
 33  4  1  0
 16 11  1  0
 31 26  1  0
  1 34  1  0
  3 35  1  0
  3 36  1  0
  5 37  1  0
  5 38  1  0
  6 39  1  0
  6 40  1  0
  7 41  1  0
  9 42  1  0
  9 43  1  0
 10 44  1  0
 10 45  1  0
 11 46  1  0
 12 47  1  0
 12 48  1  0
 13 49  1  0
 13 50  1  0
 14 51  1  0
 14 52  1  0
 15 53  1  0
 15 54  1  0
 19 55  1  1
 20 56  1  0
 20 57  1  0
 23 58  1  0
 24 59  1  0
 25 60  1  0
 25 61  1  0
 26 62  1  0
 27 63  1  0
 27 64  1  0
 28 65  1  0
 28 66  1  0
 29 67  1  0
 29 68  1  0
 30 69  1  0
 30 70  1  0
 31 71  1  0
 31 72  1  0
 32 73  1  0
 32 74  1  0
 33 75  1  0
 33 76  1  0
M  END
$$$$
