
     RDKit          3D

 50 50  0  0  0  0  0  0  0  0999 V2000
    0.6913    0.0000    0.0000 Cl  0  0  0  0  0  0  0  0  0  0  0  0
   -8.1688   -1.0310   -0.6465 N   0  0  0  0  0  0  0  0  0  0  0  0
   -7.4763   -0.0506   -0.1724 C   0  0  0  0  0  0  0  0  0  0  0  0
   -8.1588    0.9657    0.5833 N   0  0  0  0  0  0  0  0  0  0  0  0
   -6.0371    0.0700   -0.3695 C   0  0  0  0  0  0  0  0  0  0  0  0
   -5.2866    0.7030    0.5984 C   0  0  0  0  0  0  0  0  0  0  0  0
   -3.9183    0.8349    0.4437 C   0  0  0  0  0  0  0  0  0  0  0  0
   -3.2322    0.3585   -0.6514 C   0  0  0  0  0  0  0  0  0  0  0  0
   -1.8487    0.4525   -0.8444 N   0  0  0  0  0  0  0  0  0  0  0  0
   -0.8876    1.0012    0.0756 C   0  0  0  0  0  0  0  0  0  0  0  0
   -0.6828    0.1034    1.2625 C   0  0  0  0  0  0  0  0  0  0  0  0
   -0.1687   -1.2427    0.7957 C   0  0  0  0  0  0  0  0  0  0  0  0
    1.1432   -1.1277    0.0646 C   0  0  0  0  0  0  0  0  0  0  0  0
    2.1897   -0.5601    0.8616 N   0  0  0  0  0  0  0  0  0  0  0  0
    3.5218   -0.3448    0.4057 C   0  0  0  0  0  0  0  0  0  0  0  0
    4.4771    0.2139    1.2509 C   0  0  0  0  0  0  0  0  0  0  0  0
    5.7608    0.4156    0.7949 C   0  0  0  0  0  0  0  0  0  0  0  0
    6.0908    0.0558   -0.5161 C   0  0  0  0  0  0  0  0  0  0  0  0
    7.4706    0.3019   -0.9216 C   0  0  0  0  0  0  0  0  0  0  0  0
    8.4253    0.2627   -0.0692 N   0  0  0  0  0  0  0  0  0  0  0  0
    7.8111    0.5937   -2.2718 N   0  0  0  0  0  0  0  0  0  0  0  0
    5.1479   -0.5006   -1.3648 C   0  0  0  0  0  0  0  0  0  0  0  0
    3.8696   -0.6922   -0.8838 C   0  0  0  0  0  0  0  0  0  0  0  0
   -4.0156   -0.2782   -1.6172 C   0  0  0  0  0  0  0  0  0  0  0  0
   -5.3799   -0.4181   -1.4792 C   0  0  0  0  0  0  0  0  0  0  0  0
   -0.6913    0.0000    0.0000 H   0  0  0  0  0  0  0  0  0  0  0  0
   -7.6494   -1.7547   -1.1909 H   0  0  0  0  0  0  0  0  0  0  0  0
   -8.2294    0.9129    1.6152 H   0  0  0  0  0  0  0  0  0  0  0  0
   -8.6032    1.7864    0.1137 H   0  0  0  0  0  0  0  0  0  0  0  0
   -5.7716    1.1066    1.4989 H   0  0  0  0  0  0  0  0  0  0  0  0
   -3.3969    1.3519    1.2305 H   0  0  0  0  0  0  0  0  0  0  0  0
   -1.4492    0.0857   -1.7591 H   0  0  0  0  0  0  0  0  0  0  0  0
   -1.2770    1.9935    0.4334 H   0  0  0  0  0  0  0  0  0  0  0  0
    0.0689    1.2513   -0.4339 H   0  0  0  0  0  0  0  0  0  0  0  0
   -0.0601    0.5468    2.0455 H   0  0  0  0  0  0  0  0  0  0  0  0
   -1.6652   -0.0990    1.7214 H   0  0  0  0  0  0  0  0  0  0  0  0
   -0.9114   -1.6549    0.0818 H   0  0  0  0  0  0  0  0  0  0  0  0
   -0.0807   -1.9322    1.6388 H   0  0  0  0  0  0  0  0  0  0  0  0
    1.0528   -0.5305   -0.8653 H   0  0  0  0  0  0  0  0  0  0  0  0
    1.4774   -2.1450   -0.2235 H   0  0  0  0  0  0  0  0  0  0  0  0
    1.9452   -0.2880    1.8492 H   0  0  0  0  0  0  0  0  0  0  0  0
    4.2382    0.4928    2.2535 H   0  0  0  0  0  0  0  0  0  0  0  0
    6.4858    0.8511    1.4697 H   0  0  0  0  0  0  0  0  0  0  0  0
    8.2928    0.0577    0.9509 H   0  0  0  0  0  0  0  0  0  0  0  0
    8.1359    1.5572   -2.5443 H   0  0  0  0  0  0  0  0  0  0  0  0
    7.7259   -0.1853   -2.9809 H   0  0  0  0  0  0  0  0  0  0  0  0
    5.4401   -0.7664   -2.3724 H   0  0  0  0  0  0  0  0  0  0  0  0
    3.1495   -1.1244   -1.5531 H   0  0  0  0  0  0  0  0  0  0  0  0
   -3.5629   -0.6889   -2.5217 H   0  0  0  0  0  0  0  0  0  0  0  0
   -6.0020   -0.9113   -2.2229 H   0  0  0  0  0  0  0  0  0  0  0  0
  2  3  2  3
  3  4  1  0
  3  5  1  0
  5  6  2  0
  6  7  1  0
  7  8  2  0
  8  9  1  0
  9 10  1  0
 10 11  1  0
 11 12  1  0
 12 13  1  0
 13 14  1  0
 14 15  1  0
 15 16  2  0
 16 17  1  0
 17 18  2  0
 18 19  1  0
 19 20  2  3
 19 21  1  0
 18 22  1  0
 22 23  2  0
  8 24  1  0
 24 25  2  0
 25  5  1  0
 23 15  1  0
  1 26  1  0
  2 27  1  0
  4 28  1  0
  4 29  1  0
  6 30  1  0
  7 31  1  0
  9 32  1  0
 10 33  1  0
 10 34  1  0
 11 35  1  0
 11 36  1  0
 12 37  1  0
 12 38  1  0
 13 39  1  0
 13 40  1  0
 14 41  1  0
 16 42  1  0
 17 43  1  0
 20 44  1  0
 21 45  1  0
 21 46  1  0
 22 47  1  0
 23 48  1  0
 24 49  1  0
 25 50  1  0
M  END
$$$$
