
     RDKit          3D

 71 75  0  0  0  0  0  0  0  0999 V2000
   -0.2035    3.4918    3.7559 C   0  0  0  0  0  0  0  0  0  0  0  0
   -0.5544    2.1870    3.0591 C   0  0  0  0  0  0  0  0  0  0  0  0
    0.2666    1.9870    1.8273 C   0  0  0  0  0  0  0  0  0  0  0  0
    1.4563    1.4180    1.8095 N   0  0  0  0  0  0  0  0  0  0  0  0
    1.8680    1.4424    0.5035 C   0  0  0  0  0  0  0  0  0  0  0  0
    3.0665    0.9654   -0.0543 C   0  0  0  0  0  0  0  0  0  0  0  0
    3.2773    1.0957   -1.4268 C   0  0  0  0  0  0  0  0  0  0  0  0
    4.3805    0.6962   -2.1231 O   0  0  0  0  0  0  0  0  0  0  0  0
    5.3865   -0.1563   -1.5671 C   0  0  0  0  0  0  0  0  0  0  0  0
    4.8838   -1.5372   -1.1392 C   0  0  0  0  0  0  0  0  0  0  0  0
    6.0562   -2.4370   -0.7485 C   0  0  0  0  0  0  0  0  0  0  0  0
    7.1158   -1.7071   -0.0345 N   0  0  0  0  0  0  0  0  0  0  0  0
    8.3441   -2.2974    0.2165 C   0  0  0  0  0  0  0  0  0  0  0  0
    8.5070   -3.7961    0.0458 C   0  0  0  0  0  0  0  0  0  0  0  0
    9.4083   -1.6561    0.5688 N   0  0  0  0  0  0  0  0  0  0  0  0
    6.7077   -0.4373    0.5663 C   0  0  0  0  0  0  0  0  0  0  0  0
    6.2851    0.5328   -0.5316 C   0  0  0  0  0  0  0  0  0  0  0  0
    2.3022    1.7136   -2.2193 C   0  0  0  0  0  0  0  0  0  0  0  0
    1.1005    2.1982   -1.6860 C   0  0  0  0  0  0  0  0  0  0  0  0
    0.9144    2.0423   -0.3092 C   0  0  0  0  0  0  0  0  0  0  0  0
   -0.1080    2.3742    0.5555 N   0  0  0  0  0  0  0  0  0  0  0  0
   -1.3308    3.0750    0.1860 C   0  0  0  0  0  0  0  0  0  0  0  0
   -2.5341    2.1660    0.0946 C   0  0  0  0  0  0  0  0  0  0  0  0
   -3.7437    2.5525    0.6887 C   0  0  0  0  0  0  0  0  0  0  0  0
   -4.8792    1.7404    0.5946 C   0  0  0  0  0  0  0  0  0  0  0  0
   -4.8458    0.5256   -0.1055 C   0  0  0  0  0  0  0  0  0  0  0  0
   -6.0406   -0.3280   -0.2032 C   0  0  0  0  0  0  0  0  0  0  0  0
   -6.7190   -0.7565    0.9511 C   0  0  0  0  0  0  0  0  0  0  0  0
   -7.8537   -1.5702    0.8634 C   0  0  0  0  0  0  0  0  0  0  0  0
   -8.3300   -1.9638   -0.3884 C   0  0  0  0  0  0  0  0  0  0  0  0
   -9.5346   -2.8261   -0.4975 C   0  0  0  0  0  0  0  0  0  0  0  0
  -10.4635   -2.5978   -1.3707 N   0  0  0  0  0  0  0  0  0  0  0  0
   -9.7038   -3.8940    0.3264 N   0  0  0  0  0  0  0  0  0  0  0  0
   -7.6712   -1.5489   -1.5481 C   0  0  0  0  0  0  0  0  0  0  0  0
   -6.5350   -0.7391   -1.4528 C   0  0  0  0  0  0  0  0  0  0  0  0
   -3.6379    0.1524   -0.7129 C   0  0  0  0  0  0  0  0  0  0  0  0
   -2.5000    0.9614   -0.6203 C   0  0  0  0  0  0  0  0  0  0  0  0
    0.8545    3.5169    4.0388 H   0  0  0  0  0  0  0  0  0  0  0  0
   -0.8007    3.6081    4.6657 H   0  0  0  0  0  0  0  0  0  0  0  0
   -0.3972    4.3545    3.1100 H   0  0  0  0  0  0  0  0  0  0  0  0
   -0.3647    1.3536    3.7462 H   0  0  0  0  0  0  0  0  0  0  0  0
   -1.6244    2.1618    2.8351 H   0  0  0  0  0  0  0  0  0  0  0  0
    3.7821    0.5222    0.6201 H   0  0  0  0  0  0  0  0  0  0  0  0
    6.0400   -0.3505   -2.4302 H   0  0  0  0  0  0  0  0  0  0  0  0
    4.1945   -1.4659   -0.2924 H   0  0  0  0  0  0  0  0  0  0  0  0
    4.3022   -2.0004   -1.9454 H   0  0  0  0  0  0  0  0  0  0  0  0
    6.4780   -2.8654   -1.6657 H   0  0  0  0  0  0  0  0  0  0  0  0
    5.6862   -3.2653   -0.1338 H   0  0  0  0  0  0  0  0  0  0  0  0
    8.4615   -4.0511   -1.0164 H   0  0  0  0  0  0  0  0  0  0  0  0
    9.4720   -4.1256    0.4426 H   0  0  0  0  0  0  0  0  0  0  0  0
    7.7140   -4.3225    0.5836 H   0  0  0  0  0  0  0  0  0  0  0  0
    9.2276   -0.6547    0.5967 H   0  0  0  0  0  0  0  0  0  0  0  0
    5.8753   -0.6199    1.2573 H   0  0  0  0  0  0  0  0  0  0  0  0
    7.4917    0.0226    1.1756 H   0  0  0  0  0  0  0  0  0  0  0  0
    5.8197    1.4212   -0.0936 H   0  0  0  0  0  0  0  0  0  0  0  0
    7.1810    0.9043   -1.0472 H   0  0  0  0  0  0  0  0  0  0  0  0
    2.4815    1.8194   -3.2885 H   0  0  0  0  0  0  0  0  0  0  0  0
    0.3602    2.6659   -2.3253 H   0  0  0  0  0  0  0  0  0  0  0  0
   -1.1765    3.5757   -0.7756 H   0  0  0  0  0  0  0  0  0  0  0  0
   -1.4816    3.8626    0.9329 H   0  0  0  0  0  0  0  0  0  0  0  0
   -3.8185    3.4916    1.2336 H   0  0  0  0  0  0  0  0  0  0  0  0
   -5.8031    2.0733    1.0644 H   0  0  0  0  0  0  0  0  0  0  0  0
   -6.3578   -0.4630    1.9354 H   0  0  0  0  0  0  0  0  0  0  0  0
   -8.3636   -1.8697    1.7739 H   0  0  0  0  0  0  0  0  0  0  0  0
  -10.2522   -1.7593   -1.9201 H   0  0  0  0  0  0  0  0  0  0  0  0
   -9.2542   -3.9048    1.2304 H   0  0  0  0  0  0  0  0  0  0  0  0
  -10.6522   -4.2538    0.3148 H   0  0  0  0  0  0  0  0  0  0  0  0
   -8.0210   -1.8685   -2.5267 H   0  0  0  0  0  0  0  0  0  0  0  0
   -6.0372   -0.4236   -2.3681 H   0  0  0  0  0  0  0  0  0  0  0  0
   -3.5686   -0.7868   -1.2593 H   0  0  0  0  0  0  0  0  0  0  0  0
   -1.5870    0.6275   -1.1097 H   0  0  0  0  0  0  0  0  0  0  0  0
  1  2  1  0
  2  3  1  0
  3  4  2  0
  4  5  1  0
  5  6  2  0
  6  7  1  0
  7  8  1  0
  8  9  1  0
  9 10  1  0
 10 11  1  0
 11 12  1  0
 12 13  1  0
 13 14  1  0
 13 15  2  3
 12 16  1  0
 16 17  1  0
  7 18  2  0
 18 19  1  0
 19 20  2  0
 20 21  1  0
 21 22  1  0
 22 23  1  0
 23 24  2  0
 24 25  1  0
 25 26  2  0
 26 27  1  0
 27 28  2  0
 28 29  1  0
 29 30  2  0
 30 31  1  0
 31 32  2  3
 31 33  1  0
 30 34  1  0
 34 35  2  0
 26 36  1  0
 36 37  2  0
 21  3  1  0
 37 23  1  0
 20  5  1  0
 35 27  1  0
 17  9  1  0
  1 38  1  0
  1 39  1  0
  1 40  1  0
  2 41  1  0
  2 42  1  0
  6 43  1  0
  9 44  1  0
 10 45  1  0
 10 46  1  0
 11 47  1  0
 11 48  1  0
 14 49  1  0
 14 50  1  0
 14 51  1  0
 15 52  1  0
 16 53  1  0
 16 54  1  0
 17 55  1  0
 17 56  1  0
 18 57  1  0
 19 58  1  0
 22 59  1  0
 22 60  1  0
 24 61  1  0
 25 62  1  0
 28 63  1  0
 29 64  1  0
 32 65  1  0
 33 66  1  0
 33 67  1  0
 34 68  1  0
 35 69  1  0
 36 70  1  0
 37 71  1  0
M  END
$$$$
