
     RDKit          3D

 49 52  0  0  0  0  0  0  0  0999 V2000
   -7.4107    0.9313    1.1716 N   0  0  0  0  0  0  0  0  0  0  0  0
   -6.2880    0.2976    1.0781 C   0  0  0  0  0  0  0  0  0  0  0  0
   -6.2361   -1.0386    1.3560 N   0  0  0  0  0  0  0  0  0  0  0  0
   -5.0622    1.0381    0.6514 C   0  0  0  0  0  0  0  0  0  0  0  0
   -5.1942    2.2698    0.0014 C   0  0  0  0  0  0  0  0  0  0  0  0
   -4.0617    2.9765   -0.4059 C   0  0  0  0  0  0  0  0  0  0  0  0
   -2.7945    2.4523   -0.1555 C   0  0  0  0  0  0  0  0  0  0  0  0
   -1.6825    3.1400   -0.5490 O   0  0  0  0  0  0  0  0  0  0  0  0
   -2.6335    1.2280    0.5045 C   0  0  0  0  0  0  0  0  0  0  0  0
   -1.2650    0.6597    0.7822 C   0  0  0  0  0  0  0  0  0  0  0  0
   -0.6405    0.0378   -0.3748 N   0  0  0  0  0  0  0  0  0  0  0  0
   -1.3217   -0.9232   -1.2069 C   0  0  0  0  0  0  0  0  0  0  0  0
   -0.2994   -1.2627   -2.2730 C   0  0  0  0  0  0  0  0  0  0  0  0
    1.0426   -1.1249   -1.5596 C   0  0  2  0  0  0  0  0  0  0  0  0
    1.4534   -2.4253   -0.9914 N   0  0  0  0  0  0  0  0  0  0  0  0
    3.0554   -2.8879   -1.2267 S   0  0  0  0  0  0  0  0  0  0  0  0
    3.3556   -2.7799   -2.6357 O   0  0  0  0  0  0  0  0  0  0  0  0
    3.2110   -4.1306   -0.5025 O   0  0  0  0  0  0  0  0  0  0  0  0
    4.1072   -1.7476   -0.3563 C   0  0  0  0  0  0  0  0  0  0  0  0
    4.5093   -1.7095    0.9637 C   0  0  0  0  0  0  0  0  0  0  0  0
    5.3662   -0.5991    1.2633 C   0  0  0  0  0  0  0  0  0  0  0  0
    5.9788   -0.2078    2.4643 C   0  0  0  0  0  0  0  0  0  0  0  0
    6.7655    0.8914    2.5256 N   0  0  0  0  0  0  0  0  0  0  0  0
    6.9529    1.6201    1.4092 C   0  0  0  0  0  0  0  0  0  0  0  0
    6.3969    1.3244    0.1787 C   0  0  0  0  0  0  0  0  0  0  0  0
    5.5893    0.1824    0.1286 C   0  0  0  0  0  0  0  0  0  0  0  0
    4.7658   -0.4502   -1.2434 S   0  0  0  0  0  0  0  0  0  0  0  0
    0.7359   -0.1616   -0.4206 C   0  0  0  0  0  0  0  0  0  0  0  0
    1.5570    0.2515    0.3842 O   0  0  0  0  0  0  0  0  0  0  0  0
   -3.7837    0.5237    0.9063 C   0  0  0  0  0  0  0  0  0  0  0  0
   -8.1425    0.3023    1.5055 H   0  0  0  0  0  0  0  0  0  0  0  0
   -5.5348   -1.5678    0.8499 H   0  0  0  0  0  0  0  0  0  0  0  0
   -7.1281   -1.5183    1.3540 H   0  0  0  0  0  0  0  0  0  0  0  0
   -6.1832    2.6824   -0.1877 H   0  0  0  0  0  0  0  0  0  0  0  0
   -4.1901    3.9294   -0.9102 H   0  0  0  0  0  0  0  0  0  0  0  0
   -1.9541    3.9876   -0.9385 H   0  0  0  0  0  0  0  0  0  0  0  0
   -0.6046    1.4430    1.1743 H   0  0  0  0  0  0  0  0  0  0  0  0
   -1.3186   -0.1034    1.5690 H   0  0  0  0  0  0  0  0  0  0  0  0
   -2.2321   -0.5003   -1.6395 H   0  0  0  0  0  0  0  0  0  0  0  0
   -1.5695   -1.7998   -0.5982 H   0  0  0  0  0  0  0  0  0  0  0  0
   -0.3568   -0.5163   -3.0758 H   0  0  0  0  0  0  0  0  0  0  0  0
   -0.4705   -2.2471   -2.7193 H   0  0  0  0  0  0  0  0  0  0  0  0
    1.7836   -0.6970   -2.2383 H   0  0  0  0  0  0  0  0  0  0  0  0
    1.1782   -2.5767   -0.0197 H   0  0  0  0  0  0  0  0  0  0  0  0
    4.2006   -2.4542    1.6879 H   0  0  0  0  0  0  0  0  0  0  0  0
    5.8565   -0.7583    3.3909 H   0  0  0  0  0  0  0  0  0  0  0  0
    7.5922    2.4906    1.5316 H   0  0  0  0  0  0  0  0  0  0  0  0
    6.5774    1.9416   -0.6924 H   0  0  0  0  0  0  0  0  0  0  0  0
   -3.6728   -0.4132    1.4453 H   0  0  0  0  0  0  0  0  0  0  0  0
  1  2  2  3
  2  3  1  0
  2  4  1  0
  4  5  2  0
  5  6  1  0
  6  7  2  0
  7  8  1  0
  7  9  1  0
  9 10  1  0
 10 11  1  0
 11 12  1  0
 12 13  1  0
 13 14  1  0
 14 15  1  0
 15 16  1  0
 16 17  2  0
 16 18  2  0
 16 19  1  0
 19 20  2  0
 20 21  1  0
 21 22  2  0
 22 23  1  0
 23 24  2  0
 24 25  1  0
 25 26  2  0
 26 27  1  0
 14 28  1  0
 28 29  2  0
  9 30  2  0
 30  4  1  0
 28 11  1  0
 27 19  1  0
 26 21  1  0
  1 31  1  0
  3 32  1  0
  3 33  1  0
  5 34  1  0
  6 35  1  0
  8 36  1  0
 10 37  1  0
 10 38  1  0
 12 39  1  0
 12 40  1  0
 13 41  1  0
 13 42  1  0
 14 43  1  6
 15 44  1  0
 20 45  1  0
 22 46  1  0
 24 47  1  0
 25 48  1  0
 30 49  1  0
M  END
$$$$
