
     RDKit          3D

 76 78  0  0  0  0  0  0  0  0999 V2000
    3.6502    0.9296   -2.8847 N   0  0  0  0  0  0  0  0  0  0  0  0
    3.2739    0.0424   -1.7902 C   0  0  0  0  0  0  0  0  0  0  0  0
    4.2407    0.1240   -0.6382 C   0  0  0  0  0  0  0  0  0  0  0  0
    5.5525   -0.3496   -0.7748 C   0  0  0  0  0  0  0  0  0  0  0  0
    6.4373   -0.3194    0.3056 C   0  0  0  0  0  0  0  0  0  0  0  0
    6.0276    0.1945    1.5427 C   0  0  0  0  0  0  0  0  0  0  0  0
    6.9460    0.1542    2.7373 C   0  0  0  0  0  0  0  0  0  0  0  0
    6.7974   -1.1075    3.4324 N   0  0  0  0  0  0  0  0  0  0  0  0
    5.8207   -1.2770    4.3915 C   0  0  0  0  0  0  0  0  0  0  0  0
    5.1614   -0.3494    4.8512 O   0  0  0  0  0  0  0  0  0  0  0  0
    5.6072   -2.7072    4.8104 C   0  0  0  0  0  0  0  0  0  0  0  0
    4.1618   -3.1404    4.8195 C   0  0  0  0  0  0  0  0  0  0  0  0
    3.7065   -3.8376    5.7241 O   0  0  0  0  0  0  0  0  0  0  0  0
    3.4333   -2.8079    3.6980 N   0  0  0  0  0  0  0  0  0  0  0  0
    2.0209   -3.1073    3.6386 C   0  0  0  0  0  0  0  0  0  0  0  0
    1.4781   -2.8445    2.2599 C   0  0  0  0  0  0  0  0  0  0  0  0
    0.9641   -1.5869    1.9231 C   0  0  0  0  0  0  0  0  0  0  0  0
    0.4961   -1.3332    0.6303 C   0  0  0  0  0  0  0  0  0  0  0  0
    0.5260   -2.3312   -0.3542 C   0  0  0  0  0  0  0  0  0  0  0  0
    0.0898   -2.0797   -1.7782 C   0  0  0  0  0  0  0  0  0  0  0  0
   -0.8708   -1.0062   -1.9015 N   0  0  0  0  0  0  0  0  0  0  0  0
   -0.7228    0.0236   -2.7967 C   0  0  0  0  0  0  0  0  0  0  0  0
    0.2998    0.1973   -3.4593 O   0  0  0  0  0  0  0  0  0  0  0  0
   -1.8573    1.0201   -2.8498 C   0  0  0  0  0  0  0  0  0  0  0  0
   -3.2459    0.4310   -2.8198 C   0  0  0  0  0  0  0  0  0  0  0  0
   -3.5338   -0.5430   -2.1279 O   0  0  0  0  0  0  0  0  0  0  0  0
   -4.1580    1.0971   -3.6070 N   0  0  0  0  0  0  0  0  0  0  0  0
   -5.5655    0.7615   -3.5982 C   0  0  0  0  0  0  0  0  0  0  0  0
   -6.3364    1.7388   -2.7503 C   0  0  0  0  0  0  0  0  0  0  0  0
   -6.9806    2.8401   -3.3293 C   0  0  0  0  0  0  0  0  0  0  0  0
   -7.6767    3.7546   -2.5336 C   0  0  0  0  0  0  0  0  0  0  0  0
   -7.7354    3.5906   -1.1434 C   0  0  0  0  0  0  0  0  0  0  0  0
   -8.4829    4.5743   -0.2799 C   0  0  0  0  0  0  0  0  0  0  0  0
   -9.6274    3.9500    0.3714 N   0  0  0  0  0  0  0  0  0  0  0  0
   -7.0839    2.4923   -0.5657 C   0  0  0  0  0  0  0  0  0  0  0  0
   -6.3895    1.5774   -1.3597 C   0  0  0  0  0  0  0  0  0  0  0  0
    1.0586   -3.5839   -0.0158 C   0  0  0  0  0  0  0  0  0  0  0  0
    1.5293   -3.8381    1.2753 C   0  0  0  0  0  0  0  0  0  0  0  0
    4.7204    0.6824    1.6751 C   0  0  0  0  0  0  0  0  0  0  0  0
    3.8376    0.6513    0.5946 C   0  0  0  0  0  0  0  0  0  0  0  0
    2.8949    0.8937   -3.5735 H   0  0  0  0  0  0  0  0  0  0  0  0
    3.6550    1.8853   -2.5340 H   0  0  0  0  0  0  0  0  0  0  0  0
    2.2645    0.3011   -1.4534 H   0  0  0  0  0  0  0  0  0  0  0  0
    3.2362   -0.9913   -2.1512 H   0  0  0  0  0  0  0  0  0  0  0  0
    5.8828   -0.7491   -1.7320 H   0  0  0  0  0  0  0  0  0  0  0  0
    7.4448   -0.7060    0.1729 H   0  0  0  0  0  0  0  0  0  0  0  0
    7.9910    0.2377    2.4196 H   0  0  0  0  0  0  0  0  0  0  0  0
    6.7397    0.9905    3.4148 H   0  0  0  0  0  0  0  0  0  0  0  0
    7.1699   -1.9231    2.9656 H   0  0  0  0  0  0  0  0  0  0  0  0
    6.0108   -2.8095    5.8241 H   0  0  0  0  0  0  0  0  0  0  0  0
    6.1559   -3.3980    4.1611 H   0  0  0  0  0  0  0  0  0  0  0  0
    3.7514   -2.0360    3.1224 H   0  0  0  0  0  0  0  0  0  0  0  0
    1.8565   -4.1524    3.9272 H   0  0  0  0  0  0  0  0  0  0  0  0
    1.5071   -2.4874    4.3831 H   0  0  0  0  0  0  0  0  0  0  0  0
    0.9332   -0.7912    2.6647 H   0  0  0  0  0  0  0  0  0  0  0  0
    0.1178   -0.3402    0.3984 H   0  0  0  0  0  0  0  0  0  0  0  0
   -0.4066   -2.9733   -2.1742 H   0  0  0  0  0  0  0  0  0  0  0  0
    0.9713   -1.8829   -2.3957 H   0  0  0  0  0  0  0  0  0  0  0  0
   -1.8046   -1.1793   -1.5291 H   0  0  0  0  0  0  0  0  0  0  0  0
   -1.7329    1.6069   -3.7677 H   0  0  0  0  0  0  0  0  0  0  0  0
   -1.7572    1.7011   -1.9977 H   0  0  0  0  0  0  0  0  0  0  0  0
   -3.9063    1.9924   -4.0045 H   0  0  0  0  0  0  0  0  0  0  0  0
   -5.7229   -0.2620   -3.2401 H   0  0  0  0  0  0  0  0  0  0  0  0
   -5.9138    0.7989   -4.6363 H   0  0  0  0  0  0  0  0  0  0  0  0
   -6.9500    2.9930   -4.4058 H   0  0  0  0  0  0  0  0  0  0  0  0
   -8.1743    4.5971   -3.0086 H   0  0  0  0  0  0  0  0  0  0  0  0
   -8.8303    5.4221   -0.8814 H   0  0  0  0  0  0  0  0  0  0  0  0
   -7.8015    4.9793    0.4767 H   0  0  0  0  0  0  0  0  0  0  0  0
  -10.2321    3.5456   -0.3421 H   0  0  0  0  0  0  0  0  0  0  0  0
  -10.1750    4.6651    0.8447 H   0  0  0  0  0  0  0  0  0  0  0  0
   -7.1259    2.3434    0.5119 H   0  0  0  0  0  0  0  0  0  0  0  0
   -5.8902    0.7330   -0.8867 H   0  0  0  0  0  0  0  0  0  0  0  0
    1.1203   -4.3734   -0.7625 H   0  0  0  0  0  0  0  0  0  0  0  0
    1.9457   -4.8162    1.5080 H   0  0  0  0  0  0  0  0  0  0  0  0
    4.3782    1.0768    2.6311 H   0  0  0  0  0  0  0  0  0  0  0  0
    2.8263    1.0280    0.7267 H   0  0  0  0  0  0  0  0  0  0  0  0
  1  2  1  0
  2  3  1  0
  3  4  2  0
  4  5  1  0
  5  6  2  0
  6  7  1  0
  7  8  1  0
  8  9  1  0
  9 10  2  0
  9 11  1  0
 11 12  1  0
 12 13  2  0
 12 14  1  0
 14 15  1  0
 15 16  1  0
 16 17  2  0
 17 18  1  0
 18 19  2  0
 19 20  1  0
 20 21  1  0
 21 22  1  0
 22 23  2  0
 22 24  1  0
 24 25  1  0
 25 26  2  0
 25 27  1  0
 27 28  1  0
 28 29  1  0
 29 30  2  0
 30 31  1  0
 31 32  2  0
 32 33  1  0
 33 34  1  0
 32 35  1  0
 35 36  2  0
 19 37  1  0
 37 38  2  0
  6 39  1  0
 39 40  2  0
 40  3  1  0
 38 16  1  0
 36 29  1  0
  1 41  1  0
  1 42  1  0
  2 43  1  0
  2 44  1  0
  4 45  1  0
  5 46  1  0
  7 47  1  0
  7 48  1  0
  8 49  1  0
 11 50  1  0
 11 51  1  0
 14 52  1  0
 15 53  1  0
 15 54  1  0
 17 55  1  0
 18 56  1  0
 20 57  1  0
 20 58  1  0
 21 59  1  0
 24 60  1  0
 24 61  1  0
 27 62  1  0
 28 63  1  0
 28 64  1  0
 30 65  1  0
 31 66  1  0
 33 67  1  0
 33 68  1  0
 34 69  1  0
 34 70  1  0
 35 71  1  0
 36 72  1  0
 37 73  1  0
 38 74  1  0
 39 75  1  0
 40 76  1  0
M  END
$$$$
