
     RDKit          3D

 50 54  0  0  0  0  0  0  0  0999 V2000
   -3.7356   -1.8642    1.0904 C   0  0  0  0  0  0  0  0  0  0  0  0
   -4.1626   -0.6969    0.3450 N   0  0  0  0  0  0  0  0  0  0  0  0
   -3.5443   -0.1946   -0.7845 C   0  0  0  0  0  0  0  0  0  0  0  0
   -2.3064   -0.7671   -1.3991 C   0  0  0  0  0  0  0  0  0  0  0  0
   -1.1231   -0.3071   -0.6823 N   0  0  0  0  0  0  0  0  0  0  0  0
   -0.8470    1.1308   -0.6539 C   0  0  0  0  0  0  0  0  0  0  0  0
    0.6283    1.4338   -0.3999 C   0  0  0  0  0  0  0  0  0  0  0  0
    1.0043    0.8060    0.8789 N   0  0  0  0  0  0  0  0  0  0  0  0
    2.3957    1.3596    1.6571 S   0  0  0  0  0  0  0  0  0  0  0  0
    2.4880    0.6690    2.9262 O   0  0  0  0  0  0  0  0  0  0  0  0
    2.4275    2.8030    1.5790 O   0  0  0  0  0  0  0  0  0  0  0  0
    3.8233    0.7828    0.7568 C   0  0  0  0  0  0  0  0  0  0  0  0
    4.7166   -0.2354    1.0210 C   0  0  0  0  0  0  0  0  0  0  0  0
    5.7304   -0.3732    0.0180 C   0  0  0  0  0  0  0  0  0  0  0  0
    6.8107   -1.2824   -0.0795 C   0  0  0  0  0  0  0  0  0  0  0  0
    7.6855   -1.2248   -1.1692 C   0  0  0  0  0  0  0  0  0  0  0  0
    7.4985   -0.2726   -2.1612 C   0  0  0  0  0  0  0  0  0  0  0  0
    8.5827   -0.2142   -3.4976 Cl  0  0  0  0  0  0  0  0  0  0  0  0
    6.4450    0.6398   -2.0953 C   0  0  0  0  0  0  0  0  0  0  0  0
    5.5677    0.5749   -0.9954 C   0  0  0  0  0  0  0  0  0  0  0  0
    4.2068    1.5859   -0.6956 S   0  0  0  0  0  0  0  0  0  0  0  0
    0.7876   -0.6562    0.8941 C   0  0  0  0  0  0  0  0  0  0  0  0
   -0.4253   -1.1871    0.1350 C   0  0  0  0  0  0  0  0  0  0  0  0
   -0.7243   -2.3807    0.2218 O   0  0  0  0  0  0  0  0  0  0  0  0
   -4.2947    0.8884   -1.2079 C   0  0  0  0  0  0  0  0  0  0  0  0
   -5.3642    1.0798   -0.2962 C   0  0  0  0  0  0  0  0  0  0  0  0
   -6.4092    2.0081   -0.2047 C   0  0  0  0  0  0  0  0  0  0  0  0
   -7.3007    1.9495    0.8134 N   0  0  0  0  0  0  0  0  0  0  0  0
   -7.1608    0.9779    1.7395 C   0  0  0  0  0  0  0  0  0  0  0  0
   -6.1653    0.0119    1.7362 C   0  0  0  0  0  0  0  0  0  0  0  0
   -5.2559    0.0838    0.6762 C   0  0  0  0  0  0  0  0  0  0  0  0
   -4.5692   -2.2564    1.6767 H   0  0  0  0  0  0  0  0  0  0  0  0
   -2.9212   -1.5643    1.7534 H   0  0  0  0  0  0  0  0  0  0  0  0
   -3.4165   -2.6412    0.3934 H   0  0  0  0  0  0  0  0  0  0  0  0
   -2.2102   -0.4275   -2.4375 H   0  0  0  0  0  0  0  0  0  0  0  0
   -2.3522   -1.8596   -1.4346 H   0  0  0  0  0  0  0  0  0  0  0  0
   -1.1420    1.5654   -1.6153 H   0  0  0  0  0  0  0  0  0  0  0  0
   -1.4648    1.5716    0.1374 H   0  0  0  0  0  0  0  0  0  0  0  0
    1.2382    1.0270   -1.2133 H   0  0  0  0  0  0  0  0  0  0  0  0
    0.7633    2.5186   -0.3617 H   0  0  0  0  0  0  0  0  0  0  0  0
    4.6449   -0.8557    1.9077 H   0  0  0  0  0  0  0  0  0  0  0  0
    6.9661   -2.0301    0.6953 H   0  0  0  0  0  0  0  0  0  0  0  0
    8.5114   -1.9295   -1.2304 H   0  0  0  0  0  0  0  0  0  0  0  0
    6.3044    1.3857   -2.8720 H   0  0  0  0  0  0  0  0  0  0  0  0
    1.6615   -1.1590    0.4647 H   0  0  0  0  0  0  0  0  0  0  0  0
    0.6634   -0.9782    1.9342 H   0  0  0  0  0  0  0  0  0  0  0  0
   -4.0852    1.4940   -2.0804 H   0  0  0  0  0  0  0  0  0  0  0  0
   -6.5535    2.8051   -0.9247 H   0  0  0  0  0  0  0  0  0  0  0  0
   -7.9081    0.9922    2.5290 H   0  0  0  0  0  0  0  0  0  0  0  0
   -6.1099   -0.7401    2.5120 H   0  0  0  0  0  0  0  0  0  0  0  0
  1  2  1  0
  2  3  1  0
  3  4  1  0
  4  5  1  0
  5  6  1  0
  6  7  1  0
  7  8  1  0
  8  9  1  0
  9 10  2  0
  9 11  2  0
  9 12  1  0
 12 13  2  0
 13 14  1  0
 14 15  2  0
 15 16  1  0
 16 17  2  0
 17 18  1  0
 17 19  1  0
 19 20  2  0
 20 21  1  0
  8 22  1  0
 22 23  1  0
 23 24  2  0
  3 25  2  0
 25 26  1  0
 26 27  2  0
 27 28  1  0
 28 29  2  0
 29 30  1  0
 30 31  2  0
 31  2  1  0
 23  5  1  0
 31 26  1  0
 21 12  1  0
 20 14  1  0
  1 32  1  0
  1 33  1  0
  1 34  1  0
  4 35  1  0
  4 36  1  0
  6 37  1  0
  6 38  1  0
  7 39  1  0
  7 40  1  0
 13 41  1  0
 15 42  1  0
 16 43  1  0
 19 44  1  0
 22 45  1  0
 22 46  1  0
 25 47  1  0
 27 48  1  0
 29 49  1  0
 30 50  1  0
M  END
$$$$
