
     RDKit          3D

 56 58  0  0  0  0  0  0  0  0999 V2000
   -2.1021    0.2498   -3.0924 C   0  0  0  0  0  0  0  0  0  0  0  0
   -2.3217    1.7459   -3.3196 C   0  0  0  0  0  0  0  0  0  0  0  0
   -1.0401    2.5472   -3.5821 C   0  0  0  0  0  0  0  0  0  0  0  0
   -0.0875    2.6406   -2.4431 C   0  0  0  0  0  0  0  0  0  0  0  0
    0.3779    3.6975   -1.6909 C   0  0  0  0  0  0  0  0  0  0  0  0
    1.2754    3.1480   -0.7451 C   0  0  0  0  0  0  0  0  0  0  0  0
    1.3062    1.7835   -0.9668 C   0  0  0  0  0  0  0  0  0  0  0  0
    2.0229    0.7333   -0.2806 C   0  0  0  0  0  0  0  0  0  0  0  0
    2.7852    0.9099    0.6643 O   0  0  0  0  0  0  0  0  0  0  0  0
    1.6981   -0.4983   -0.8458 O   0  0  0  0  0  0  0  0  0  0  0  0
    2.2512   -1.6279   -0.2313 C   0  0  0  0  0  0  0  0  0  0  0  0
    3.6299   -1.8328   -0.1901 C   0  0  0  0  0  0  0  0  0  0  0  0
    4.1302   -2.9961    0.3983 C   0  0  0  0  0  0  0  0  0  0  0  0
    3.2475   -3.9490    0.9231 C   0  0  0  0  0  0  0  0  0  0  0  0
    3.7694   -5.1951    1.5440 C   0  0  0  0  0  0  0  0  0  0  0  0
    4.8654   -5.2284    2.2322 N   0  0  0  0  0  0  0  0  0  0  0  0
    3.0949   -6.3698    1.3955 N   0  0  0  0  0  0  0  0  0  0  0  0
    1.8635   -3.7456    0.8472 C   0  0  0  0  0  0  0  0  0  0  0  0
    1.3629   -2.5820    0.2628 C   0  0  0  0  0  0  0  0  0  0  0  0
    0.4816    1.4803   -2.0178 O   0  0  0  0  0  0  0  0  0  0  0  0
   -3.1909    2.3728   -2.2349 C   0  0  0  0  0  0  0  0  0  0  0  0
   -4.2223    2.9788   -2.5173 O   0  0  0  0  0  0  0  0  0  0  0  0
   -2.7374    2.2389   -0.9446 N   0  0  0  0  0  0  0  0  0  0  0  0
   -3.5498    2.6456    0.1864 C   0  0  0  0  0  0  0  0  0  0  0  0
   -2.7379    2.7869    1.4780 C   0  0  0  0  0  0  0  0  0  0  0  0
   -2.0416    1.5230    1.9346 C   0  0  0  0  0  0  0  0  0  0  0  0
   -2.7438    0.3208    2.0990 C   0  0  0  0  0  0  0  0  0  0  0  0
   -2.0881   -0.8310    2.5397 C   0  0  0  0  0  0  0  0  0  0  0  0
   -0.7272   -0.7918    2.8328 C   0  0  0  0  0  0  0  0  0  0  0  0
   -0.0210    0.3992    2.6879 C   0  0  0  0  0  0  0  0  0  0  0  0
   -0.6746    1.5507    2.2458 C   0  0  0  0  0  0  0  0  0  0  0  0
   -3.0657   -0.2681   -3.0273 H   0  0  0  0  0  0  0  0  0  0  0  0
   -1.5629    0.0291   -2.1674 H   0  0  0  0  0  0  0  0  0  0  0  0
   -1.5413   -0.1890   -3.9241 H   0  0  0  0  0  0  0  0  0  0  0  0
   -2.9176    1.8175   -4.2417 H   0  0  0  0  0  0  0  0  0  0  0  0
   -0.5122    2.1135   -4.4408 H   0  0  0  0  0  0  0  0  0  0  0  0
   -1.3200    3.5669   -3.8787 H   0  0  0  0  0  0  0  0  0  0  0  0
    0.0986    4.7359   -1.8093 H   0  0  0  0  0  0  0  0  0  0  0  0
    1.8322    3.6731    0.0198 H   0  0  0  0  0  0  0  0  0  0  0  0
    4.3140   -1.0986   -0.6061 H   0  0  0  0  0  0  0  0  0  0  0  0
    5.2042   -3.1607    0.4206 H   0  0  0  0  0  0  0  0  0  0  0  0
    5.2712   -4.2930    2.3286 H   0  0  0  0  0  0  0  0  0  0  0  0
    3.6747   -7.1528    1.6838 H   0  0  0  0  0  0  0  0  0  0  0  0
    2.6687   -6.5200    0.4887 H   0  0  0  0  0  0  0  0  0  0  0  0
    1.1752   -4.4807    1.2568 H   0  0  0  0  0  0  0  0  0  0  0  0
    0.2906   -2.4176    0.2015 H   0  0  0  0  0  0  0  0  0  0  0  0
   -1.9798    1.5901   -0.7636 H   0  0  0  0  0  0  0  0  0  0  0  0
   -4.0244    3.6047   -0.0513 H   0  0  0  0  0  0  0  0  0  0  0  0
   -4.3522    1.9076    0.2930 H   0  0  0  0  0  0  0  0  0  0  0  0
   -1.9939    3.5807    1.3320 H   0  0  0  0  0  0  0  0  0  0  0  0
   -3.3984    3.1226    2.2869 H   0  0  0  0  0  0  0  0  0  0  0  0
   -3.8112    0.2688    1.8970 H   0  0  0  0  0  0  0  0  0  0  0  0
   -2.6438   -1.7567    2.6662 H   0  0  0  0  0  0  0  0  0  0  0  0
   -0.2174   -1.6851    3.1849 H   0  0  0  0  0  0  0  0  0  0  0  0
    1.0404    0.4338    2.9254 H   0  0  0  0  0  0  0  0  0  0  0  0
   -0.1055    2.4734    2.1543 H   0  0  0  0  0  0  0  0  0  0  0  0
  1  2  1  0
  2  3  1  0
  3  4  1  0
  4  5  2  0
  5  6  1  0
  6  7  2  0
  7  8  1  0
  8  9  2  0
  8 10  1  0
 10 11  1  0
 11 12  2  0
 12 13  1  0
 13 14  2  0
 14 15  1  0
 15 16  2  3
 15 17  1  0
 14 18  1  0
 18 19  2  0
  7 20  1  0
  2 21  1  0
 21 22  2  0
 21 23  1  0
 23 24  1  0
 24 25  1  0
 25 26  1  0
 26 27  2  0
 27 28  1  0
 28 29  2  0
 29 30  1  0
 30 31  2  0
 20  4  1  0
 31 26  1  0
 19 11  1  0
  1 32  1  0
  1 33  1  0
  1 34  1  0
  2 35  1  0
  3 36  1  0
  3 37  1  0
  5 38  1  0
  6 39  1  0
 12 40  1  0
 13 41  1  0
 16 42  1  0
 17 43  1  0
 17 44  1  0
 18 45  1  0
 19 46  1  0
 23 47  1  0
 24 48  1  0
 24 49  1  0
 25 50  1  0
 25 51  1  0
 27 52  1  0
 28 53  1  0
 29 54  1  0
 30 55  1  0
 31 56  1  0
M  END
$$$$
