
     RDKit          3D

 52 55  0  0  0  0  0  0  0  0999 V2000
    8.2277   -2.8214    0.1442 C   0  0  0  0  0  0  0  0  0  0  0  0
    6.8197   -2.7779    0.3345 O   0  0  0  0  0  0  0  0  0  0  0  0
    6.1788   -1.6173   -0.0266 C   0  0  0  0  0  0  0  0  0  0  0  0
    6.7661   -0.5569   -0.7167 C   0  0  0  0  0  0  0  0  0  0  0  0
    6.0134    0.5799   -1.0320 C   0  0  0  0  0  0  0  0  0  0  0  0
    4.6610    0.6705   -0.6643 C   0  0  0  0  0  0  0  0  0  0  0  0
    3.9440    1.8586   -0.9651 N   0  0  0  0  0  0  0  0  0  0  0  0
    4.6233    3.0031   -1.2527 N   0  0  0  0  0  0  0  0  0  0  0  0
    3.7313    3.9778   -1.2637 N   0  0  0  0  0  0  0  0  0  0  0  0
    2.4735    3.4878   -1.0829 N   0  0  0  0  0  0  0  0  0  0  0  0
    2.5947    2.1720   -0.9782 C   0  0  0  0  0  0  0  0  0  0  0  0
    1.4408    1.3032   -0.9894 C   0  0  0  0  0  0  0  0  0  0  0  0
    1.5049    0.1031   -1.2293 O   0  0  0  0  0  0  0  0  0  0  0  0
    0.2657    1.9959   -0.7401 N   0  0  0  0  0  0  0  0  0  0  0  0
   -1.0463    1.4939   -0.6522 C   0  0  0  0  0  0  0  0  0  0  0  0
   -2.0680    2.4225   -0.4239 C   0  0  0  0  0  0  0  0  0  0  0  0
   -3.4001    2.0091   -0.3150 C   0  0  0  0  0  0  0  0  0  0  0  0
   -3.7398    0.6555   -0.4240 C   0  0  0  0  0  0  0  0  0  0  0  0
   -5.1362    0.2157   -0.3148 C   0  0  0  0  0  0  0  0  0  0  0  0
   -5.8551   -0.0302   -1.5004 C   0  0  0  0  0  0  0  0  0  0  0  0
   -7.1889   -0.4423   -1.4690 C   0  0  0  0  0  0  0  0  0  0  0  0
   -7.8339   -0.6177   -0.2492 C   0  0  0  0  0  0  0  0  0  0  0  0
   -7.1462   -0.3838    0.9412 C   0  0  0  0  0  0  0  0  0  0  0  0
   -5.8048    0.0291    0.9115 C   0  0  0  0  0  0  0  0  0  0  0  0
   -4.9395    0.3036    2.4341 S   0  0  0  0  0  0  0  0  0  0  0  0
   -6.0168   -0.1759    3.6404 N   0  0  0  0  0  0  0  0  0  0  0  0
   -3.8509   -0.6394    2.5397 O   0  0  0  0  0  0  0  0  0  0  0  0
   -4.7844    1.7261    2.6325 O   0  0  0  0  0  0  0  0  0  0  0  0
   -2.7133   -0.2689   -0.6564 C   0  0  0  0  0  0  0  0  0  0  0  0
   -1.3796    0.1451   -0.7682 C   0  0  0  0  0  0  0  0  0  0  0  0
    4.0823   -0.3853    0.0459 C   0  0  0  0  0  0  0  0  0  0  0  0
    4.8157   -1.5478    0.3231 C   0  0  0  0  0  0  0  0  0  0  0  0
    4.2379   -2.5435    1.1391 N   0  0  0  0  0  0  0  0  0  0  0  0
    8.4801   -2.8039   -0.9210 H   0  0  0  0  0  0  0  0  0  0  0  0
    8.7279   -2.0103    0.6838 H   0  0  0  0  0  0  0  0  0  0  0  0
    8.5912   -3.7680    0.5557 H   0  0  0  0  0  0  0  0  0  0  0  0
    7.8064   -0.5789   -1.0234 H   0  0  0  0  0  0  0  0  0  0  0  0
    6.5076    1.3874   -1.5714 H   0  0  0  0  0  0  0  0  0  0  0  0
    0.3758    3.0002   -0.6280 H   0  0  0  0  0  0  0  0  0  0  0  0
   -1.8473    3.4822   -0.3220 H   0  0  0  0  0  0  0  0  0  0  0  0
   -4.1716    2.7550   -0.1312 H   0  0  0  0  0  0  0  0  0  0  0  0
   -5.3696    0.1051   -2.4665 H   0  0  0  0  0  0  0  0  0  0  0  0
   -7.7221   -0.6242   -2.3991 H   0  0  0  0  0  0  0  0  0  0  0  0
   -8.8729   -0.9378   -0.2243 H   0  0  0  0  0  0  0  0  0  0  0  0
   -7.6718   -0.5289    1.8811 H   0  0  0  0  0  0  0  0  0  0  0  0
   -6.2229    0.6294    4.2336 H   0  0  0  0  0  0  0  0  0  0  0  0
   -5.6055   -0.9599    4.1499 H   0  0  0  0  0  0  0  0  0  0  0  0
   -2.9419   -1.3300   -0.7397 H   0  0  0  0  0  0  0  0  0  0  0  0
   -0.6299   -0.6207   -0.9374 H   0  0  0  0  0  0  0  0  0  0  0  0
    3.0740   -0.3276    0.4423 H   0  0  0  0  0  0  0  0  0  0  0  0
    3.2456   -2.6773    0.9727 H   0  0  0  0  0  0  0  0  0  0  0  0
    4.7704   -3.4103    1.0725 H   0  0  0  0  0  0  0  0  0  0  0  0
  1  2  1  0
  2  3  1  0
  3  4  2  0
  4  5  1  0
  5  6  2  0
  6  7  1  0
  7  8  1  0
  8  9  2  0
  9 10  1  0
 10 11  2  0
 11 12  1  0
 12 13  2  0
 12 14  1  0
 14 15  1  0
 15 16  2  0
 16 17  1  0
 17 18  2  0
 18 19  1  0
 19 20  2  0
 20 21  1  0
 21 22  2  0
 22 23  1  0
 23 24  2  0
 24 25  1  0
 25 26  1  0
 25 27  2  0
 25 28  2  0
 18 29  1  0
 29 30  2  0
  6 31  1  0
 31 32  2  0
 32 33  1  0
 32  3  1  0
 11  7  1  0
 30 15  1  0
 24 19  1  0
  1 34  1  0
  1 35  1  0
  1 36  1  0
  4 37  1  0
  5 38  1  0
 14 39  1  0
 16 40  1  0
 17 41  1  0
 20 42  1  0
 21 43  1  0
 22 44  1  0
 23 45  1  0
 26 46  1  0
 26 47  1  0
 29 48  1  0
 30 49  1  0
 31 50  1  0
 33 51  1  0
 33 52  1  0
M  END
$$$$
