
     RDKit          3D

 52 53  0  0  0  0  0  0  0  0999 V2000
   -9.2580    0.1373    0.3121 N   0  0  0  0  0  0  0  0  0  0  0  0
   -8.6761   -0.8484   -0.2912 C   0  0  0  0  0  0  0  0  0  0  0  0
   -9.4627   -1.6714   -1.0422 N   0  0  0  0  0  0  0  0  0  0  0  0
   -7.2122   -1.0949   -0.1991 C   0  0  0  0  0  0  0  0  0  0  0  0
   -6.7350   -2.4120   -0.1907 C   0  0  0  0  0  0  0  0  0  0  0  0
   -5.3615   -2.6538   -0.1170 C   0  0  0  0  0  0  0  0  0  0  0  0
   -4.4781   -1.5769   -0.0409 C   0  0  0  0  0  0  0  0  0  0  0  0
   -3.1062   -1.8801   -0.0473 O   0  0  0  0  0  0  0  0  0  0  0  0
   -2.2872   -1.2828    0.9133 C   0  0  0  0  0  0  0  0  0  0  0  0
   -2.6782   -0.5641    1.8262 O   0  0  0  0  0  0  0  0  0  0  0  0
   -0.9144   -1.6488    0.6466 C   0  0  0  0  0  0  0  0  0  0  0  0
   -0.3253   -2.4200   -0.3422 C   0  0  0  0  0  0  0  0  0  0  0  0
    1.0692   -2.4026   -0.1035 C   0  0  0  0  0  0  0  0  0  0  0  0
    1.2597   -1.6206    1.0138 C   0  0  0  0  0  0  0  0  0  0  0  0
    2.4702   -1.1778    1.7575 C   0  0  0  0  0  0  0  0  0  0  0  0
    2.8746    0.2473    1.3779 C   0  0  0  0  0  0  0  0  0  0  0  0
    3.5504    0.3257    0.0169 C   0  0  0  0  0  0  0  0  0  0  0  0
    3.8394   -0.6936   -0.6125 O   0  0  0  0  0  0  0  0  0  0  0  0
    3.8452    1.5922   -0.4845 N   0  0  0  0  0  0  0  0  0  0  0  0
    4.5453    1.6668   -1.7728 C   0  0  0  0  0  0  0  0  0  0  0  0
    6.0537    1.4676   -1.6560 C   0  0  0  0  0  0  0  0  0  0  0  0
    6.6739    1.3846   -3.0196 C   0  0  0  0  0  0  0  0  0  0  0  0
    6.1421    1.6191   -4.0909 O   0  0  0  0  0  0  0  0  0  0  0  0
    7.9729    1.0328   -2.9648 O   0  0  0  0  0  0  0  0  0  0  0  0
    3.6851    2.8383    0.2798 C   0  0  0  0  0  0  0  0  0  0  0  0
    4.8832    3.1776    1.1548 C   0  0  0  0  0  0  0  0  0  0  0  0
    5.7980    2.4401    1.4814 O   0  0  0  0  0  0  0  0  0  0  0  0
    4.8274    4.4412    1.6223 O   0  0  0  0  0  0  0  0  0  0  0  0
    0.0629   -1.1627    1.4758 O   0  0  0  0  0  0  0  0  0  0  0  0
   -4.9405   -0.2613   -0.0707 C   0  0  0  0  0  0  0  0  0  0  0  0
   -6.3155   -0.0199   -0.1388 C   0  0  0  0  0  0  0  0  0  0  0  0
   -8.5933    0.6590    0.8927 H   0  0  0  0  0  0  0  0  0  0  0  0
   -9.0544   -1.9915   -1.9123 H   0  0  0  0  0  0  0  0  0  0  0  0
  -10.3837   -1.2643   -1.1756 H   0  0  0  0  0  0  0  0  0  0  0  0
   -7.4285   -3.2488   -0.2277 H   0  0  0  0  0  0  0  0  0  0  0  0
   -4.9887   -3.6736   -0.1126 H   0  0  0  0  0  0  0  0  0  0  0  0
   -0.8426   -2.9198   -1.1510 H   0  0  0  0  0  0  0  0  0  0  0  0
    1.8487   -2.8786   -0.6846 H   0  0  0  0  0  0  0  0  0  0  0  0
    3.2926   -1.8822    1.5880 H   0  0  0  0  0  0  0  0  0  0  0  0
    2.2481   -1.2081    2.8318 H   0  0  0  0  0  0  0  0  0  0  0  0
    1.9880    0.8902    1.3862 H   0  0  0  0  0  0  0  0  0  0  0  0
    3.5874    0.6189    2.1223 H   0  0  0  0  0  0  0  0  0  0  0  0
    4.3196    2.6343   -2.2392 H   0  0  0  0  0  0  0  0  0  0  0  0
    4.1228    0.9010   -2.4355 H   0  0  0  0  0  0  0  0  0  0  0  0
    6.2773    0.5429   -1.1131 H   0  0  0  0  0  0  0  0  0  0  0  0
    6.5117    2.3091   -1.1295 H   0  0  0  0  0  0  0  0  0  0  0  0
    8.2618    1.0018   -3.9010 H   0  0  0  0  0  0  0  0  0  0  0  0
    3.5169    3.6545   -0.4293 H   0  0  0  0  0  0  0  0  0  0  0  0
    2.8116    2.7695    0.9309 H   0  0  0  0  0  0  0  0  0  0  0  0
    5.6243    4.5243    2.1894 H   0  0  0  0  0  0  0  0  0  0  0  0
   -4.2491    0.5767   -0.0393 H   0  0  0  0  0  0  0  0  0  0  0  0
   -6.6726    1.0056   -0.1775 H   0  0  0  0  0  0  0  0  0  0  0  0
  1  2  2  3
  2  3  1  0
  2  4  1  0
  4  5  2  0
  5  6  1  0
  6  7  2  0
  7  8  1  0
  8  9  1  0
  9 10  2  0
  9 11  1  0
 11 12  2  0
 12 13  1  0
 13 14  2  0
 14 15  1  0
 15 16  1  0
 16 17  1  0
 17 18  2  0
 17 19  1  0
 19 20  1  0
 20 21  1  0
 21 22  1  0
 22 23  2  0
 22 24  1  0
 19 25  1  0
 25 26  1  0
 26 27  2  0
 26 28  1  0
 14 29  1  0
  7 30  1  0
 30 31  2  0
 31  4  1  0
 29 11  1  0
  1 32  1  0
  3 33  1  0
  3 34  1  0
  5 35  1  0
  6 36  1  0
 12 37  1  0
 13 38  1  0
 15 39  1  0
 15 40  1  0
 16 41  1  0
 16 42  1  0
 20 43  1  0
 20 44  1  0
 21 45  1  0
 21 46  1  0
 24 47  1  0
 25 48  1  0
 25 49  1  0
 28 50  1  0
 30 51  1  0
 31 52  1  0
M  END
$$$$
