
     RDKit          3D

 51 54  0  0  0  0  0  0  0  0999 V2000
    7.4507    0.6344   -2.0687 N   0  0  0  0  0  0  0  0  0  0  0  0
    6.4458    0.3332   -1.1560 C   0  0  0  0  0  0  0  0  0  0  0  0
    6.5021    0.8270    0.1421 C   0  0  0  0  0  0  0  0  0  0  0  0
    5.5721    0.4088    1.0878 C   0  0  0  0  0  0  0  0  0  0  0  0
    4.6275   -0.5037    0.7680 N   0  0  0  0  0  0  0  0  0  0  0  0
    3.6490   -0.9500    1.7911 C   0  0  0  0  0  0  0  0  0  0  0  0
    2.2547   -0.4999    1.4402 C   0  0  0  0  0  0  0  0  0  0  0  0
    1.9388    0.8625    1.3553 C   0  0  0  0  0  0  0  0  0  0  0  0
    0.6474    1.2650    1.0075 C   0  0  0  0  0  0  0  0  0  0  0  0
   -0.3528    0.3251    0.7523 C   0  0  0  0  0  0  0  0  0  0  0  0
   -1.5574    0.8640    0.4034 O   0  0  0  0  0  0  0  0  0  0  0  0
   -2.7319    0.0291    0.4075 C   0  0  0  0  0  0  0  0  0  0  0  0
   -3.9382    0.9257    0.6690 C   0  0  0  0  0  0  0  0  0  0  0  0
   -4.9315    0.5253    1.5788 C   0  0  0  0  0  0  0  0  0  0  0  0
   -6.0482    1.3300    1.8143 C   0  0  0  0  0  0  0  0  0  0  0  0
   -6.1902    2.5419    1.1423 C   0  0  0  0  0  0  0  0  0  0  0  0
   -5.2177    2.9509    0.2331 C   0  0  0  0  0  0  0  0  0  0  0  0
   -4.1002    2.1485   -0.0040 C   0  0  0  0  0  0  0  0  0  0  0  0
   -2.8869   -0.7603   -0.8891 C   0  0  0  0  0  0  0  0  0  0  0  0
   -3.5675   -1.9899   -0.8793 C   0  0  0  0  0  0  0  0  0  0  0  0
   -3.7288   -2.7242   -2.0556 C   0  0  0  0  0  0  0  0  0  0  0  0
   -3.2193   -2.2379   -3.2574 C   0  0  0  0  0  0  0  0  0  0  0  0
   -2.5521   -1.0154   -3.2862 C   0  0  0  0  0  0  0  0  0  0  0  0
   -2.3891   -0.2794   -2.1112 C   0  0  0  0  0  0  0  0  0  0  0  0
   -0.0465   -1.0305    0.8402 C   0  0  0  0  0  0  0  0  0  0  0  0
    1.2464   -1.4414    1.1861 C   0  0  0  0  0  0  0  0  0  0  0  0
    4.5889   -1.0399   -0.4740 C   0  0  0  0  0  0  0  0  0  0  0  0
    5.5022   -0.6453   -1.4452 C   0  0  0  0  0  0  0  0  0  0  0  0
    7.2337    0.4770   -3.0503 H   0  0  0  0  0  0  0  0  0  0  0  0
    7.9386    1.5169   -1.9332 H   0  0  0  0  0  0  0  0  0  0  0  0
    7.2741    1.5382    0.4278 H   0  0  0  0  0  0  0  0  0  0  0  0
    5.5865    0.7932    2.1036 H   0  0  0  0  0  0  0  0  0  0  0  0
    3.7301   -2.0425    1.8415 H   0  0  0  0  0  0  0  0  0  0  0  0
    3.9395   -0.5515    2.7694 H   0  0  0  0  0  0  0  0  0  0  0  0
    2.6797    1.6335    1.5553 H   0  0  0  0  0  0  0  0  0  0  0  0
    0.4102    2.3259    0.9394 H   0  0  0  0  0  0  0  0  0  0  0  0
   -2.6564   -0.6672    1.2543 H   0  0  0  0  0  0  0  0  0  0  0  0
   -4.8465   -0.4189    2.1116 H   0  0  0  0  0  0  0  0  0  0  0  0
   -6.8110    1.0101    2.5199 H   0  0  0  0  0  0  0  0  0  0  0  0
   -7.0615    3.1660    1.3240 H   0  0  0  0  0  0  0  0  0  0  0  0
   -5.3314    3.8941   -0.2952 H   0  0  0  0  0  0  0  0  0  0  0  0
   -3.3539    2.4830   -0.7209 H   0  0  0  0  0  0  0  0  0  0  0  0
   -3.9895   -2.3795    0.0447 H   0  0  0  0  0  0  0  0  0  0  0  0
   -4.2651   -3.6700   -2.0377 H   0  0  0  0  0  0  0  0  0  0  0  0
   -3.3562   -2.8049   -4.1749 H   0  0  0  0  0  0  0  0  0  0  0  0
   -2.1700   -0.6283   -4.2274 H   0  0  0  0  0  0  0  0  0  0  0  0
   -1.8772    0.6794   -2.1567 H   0  0  0  0  0  0  0  0  0  0  0  0
   -0.7860   -1.7979    0.6302 H   0  0  0  0  0  0  0  0  0  0  0  0
    1.4437   -2.5111    1.2479 H   0  0  0  0  0  0  0  0  0  0  0  0
    3.8292   -1.7891   -0.6788 H   0  0  0  0  0  0  0  0  0  0  0  0
    5.4721   -1.1101   -2.4281 H   0  0  0  0  0  0  0  0  0  0  0  0
  1  2  1  0
  2  3  2  0
  3  4  1  0
  4  5  2  0
  5  6  1  0
  6  7  1  0
  7  8  2  0
  8  9  1  0
  9 10  2  0
 10 11  1  0
 11 12  1  0
 12 13  1  0
 13 14  2  0
 14 15  1  0
 15 16  2  0
 16 17  1  0
 17 18  2  0
 12 19  1  0
 19 20  2  0
 20 21  1  0
 21 22  2  0
 22 23  1  0
 23 24  2  0
 10 25  1  0
 25 26  2  0
  5 27  1  0
 27 28  2  0
 28  2  1  0
 26  7  1  0
 18 13  1  0
 24 19  1  0
  1 29  1  0
  1 30  1  0
  3 31  1  0
  4 32  1  0
  6 33  1  0
  6 34  1  0
  8 35  1  0
  9 36  1  0
 12 37  1  0
 14 38  1  0
 15 39  1  0
 16 40  1  0
 17 41  1  0
 18 42  1  0
 20 43  1  0
 21 44  1  0
 22 45  1  0
 23 46  1  0
 24 47  1  0
 25 48  1  0
 26 49  1  0
 27 50  1  0
 28 51  1  0
M  CHG  1   5   1
M  END
$$$$
