
     RDKit          3D

 49 50  0  0  0  0  0  0  0  0999 V2000
   -2.1679   -2.1718    0.8558 C   0  0  0  0  0  0  0  0  0  0  0  0
   -3.0896   -2.4669   -0.3275 C   0  0  0  0  0  0  0  0  0  0  0  0
   -2.3616   -2.7263   -1.6526 C   0  0  0  0  0  0  0  0  0  0  0  0
   -1.5531   -1.5900   -2.1706 C   0  0  0  0  0  0  0  0  0  0  0  0
   -1.7333   -0.6987   -3.2060 C   0  0  0  0  0  0  0  0  0  0  0  0
   -0.6044    0.1543   -3.1972 C   0  0  0  0  0  0  0  0  0  0  0  0
    0.2089   -0.2658   -2.1605 C   0  0  0  0  0  0  0  0  0  0  0  0
    1.4793    0.2431   -1.6954 C   0  0  0  0  0  0  0  0  0  0  0  0
    2.0786    1.1879   -2.1984 O   0  0  0  0  0  0  0  0  0  0  0  0
    1.9045   -0.4965   -0.5951 O   0  0  0  0  0  0  0  0  0  0  0  0
    3.1205   -0.0588   -0.0691 C   0  0  0  0  0  0  0  0  0  0  0  0
    4.2945   -0.6991   -0.4616 C   0  0  0  0  0  0  0  0  0  0  0  0
    5.5084   -0.2916    0.0924 C   0  0  0  0  0  0  0  0  0  0  0  0
    5.5326    0.7396    1.0416 C   0  0  0  0  0  0  0  0  0  0  0  0
    6.8320    1.1614    1.6259 C   0  0  0  0  0  0  0  0  0  0  0  0
    7.8916    1.3192    0.8980 N   0  0  0  0  0  0  0  0  0  0  0  0
    6.9532    1.3991    2.9591 N   0  0  0  0  0  0  0  0  0  0  0  0
    4.3427    1.3596    1.4437 C   0  0  0  0  0  0  0  0  0  0  0  0
    3.1275    0.9544    0.8892 C   0  0  0  0  0  0  0  0  0  0  0  0
   -0.3735   -1.3393   -1.5390 O   0  0  0  0  0  0  0  0  0  0  0  0
   -4.1963   -1.4286   -0.4723 C   0  0  0  0  0  0  0  0  0  0  0  0
   -5.3798   -1.7576   -0.5127 O   0  0  0  0  0  0  0  0  0  0  0  0
   -3.7901   -0.1213   -0.5780 N   0  0  0  0  0  0  0  0  0  0  0  0
   -4.7286    0.9829   -0.6387 C   0  0  0  0  0  0  0  0  0  0  0  0
   -5.2245    1.4083    0.7370 C   0  0  0  0  0  0  0  0  0  0  0  0
   -4.1360    2.0749    1.5296 C   0  0  0  0  0  0  0  0  0  0  0  0
   -2.9450    2.1149    1.2679 O   0  0  0  0  0  0  0  0  0  0  0  0
   -4.6116    2.6575    2.6481 O   0  0  0  0  0  0  0  0  0  0  0  0
   -1.4444   -2.9822    0.9926 H   0  0  0  0  0  0  0  0  0  0  0  0
   -2.7517   -2.0825    1.7789 H   0  0  0  0  0  0  0  0  0  0  0  0
   -1.6106   -1.2379    0.7408 H   0  0  0  0  0  0  0  0  0  0  0  0
   -3.6082   -3.4034   -0.0742 H   0  0  0  0  0  0  0  0  0  0  0  0
   -3.1005   -3.0017   -2.4166 H   0  0  0  0  0  0  0  0  0  0  0  0
   -1.7034   -3.5969   -1.5365 H   0  0  0  0  0  0  0  0  0  0  0  0
   -2.5792   -0.6665   -3.8798 H   0  0  0  0  0  0  0  0  0  0  0  0
   -0.3957    0.9812   -3.8633 H   0  0  0  0  0  0  0  0  0  0  0  0
    4.2680   -1.5065   -1.1874 H   0  0  0  0  0  0  0  0  0  0  0  0
    6.4273   -0.7950   -0.1980 H   0  0  0  0  0  0  0  0  0  0  0  0
    7.6863    1.1447   -0.0908 H   0  0  0  0  0  0  0  0  0  0  0  0
    7.8063    1.8980    3.1886 H   0  0  0  0  0  0  0  0  0  0  0  0
    6.1419    1.6845    3.4880 H   0  0  0  0  0  0  0  0  0  0  0  0
    4.3530    2.1695    2.1665 H   0  0  0  0  0  0  0  0  0  0  0  0
    2.2006    1.4307    1.1951 H   0  0  0  0  0  0  0  0  0  0  0  0
   -2.8132    0.1125   -0.4336 H   0  0  0  0  0  0  0  0  0  0  0  0
   -4.2205    1.8081   -1.1493 H   0  0  0  0  0  0  0  0  0  0  0  0
   -5.5812    0.6782   -1.2556 H   0  0  0  0  0  0  0  0  0  0  0  0
   -6.0377    2.1312    0.6084 H   0  0  0  0  0  0  0  0  0  0  0  0
   -5.5948    0.5498    1.3068 H   0  0  0  0  0  0  0  0  0  0  0  0
   -3.8213    3.0392    3.0843 H   0  0  0  0  0  0  0  0  0  0  0  0
  1  2  1  0
  2  3  1  0
  3  4  1  0
  4  5  2  0
  5  6  1  0
  6  7  2  0
  7  8  1  0
  8  9  2  0
  8 10  1  0
 10 11  1  0
 11 12  2  0
 12 13  1  0
 13 14  2  0
 14 15  1  0
 15 16  2  3
 15 17  1  0
 14 18  1  0
 18 19  2  0
  7 20  1  0
  2 21  1  0
 21 22  2  0
 21 23  1  0
 23 24  1  0
 24 25  1  0
 25 26  1  0
 26 27  2  0
 26 28  1  0
 20  4  1  0
 19 11  1  0
  1 29  1  0
  1 30  1  0
  1 31  1  0
  2 32  1  0
  3 33  1  0
  3 34  1  0
  5 35  1  0
  6 36  1  0
 12 37  1  0
 13 38  1  0
 16 39  1  0
 17 40  1  0
 17 41  1  0
 18 42  1  0
 19 43  1  0
 23 44  1  0
 24 45  1  0
 24 46  1  0
 25 47  1  0
 25 48  1  0
 28 49  1  0
M  END
$$$$
