
     RDKit          3D

 88 90  0  0  0  0  0  0  0  0999 V2000
   10.3409    1.9691    5.2304 N   0  0  0  0  0  0  0  0  0  0  0  0
    9.2526    1.5581    4.3513 C   0  0  0  0  0  0  0  0  0  0  0  0
    9.7451    1.2797    2.9543 C   0  0  0  0  0  0  0  0  0  0  0  0
   10.6622    0.2461    2.7170 C   0  0  0  0  0  0  0  0  0  0  0  0
   11.1194   -0.0204    1.4241 C   0  0  0  0  0  0  0  0  0  0  0  0
   10.6714    0.7468    0.3416 C   0  0  0  0  0  0  0  0  0  0  0  0
   11.1416    0.4528   -1.0593 C   0  0  0  0  0  0  0  0  0  0  0  0
   10.2127   -0.4206   -1.7393 N   0  0  0  0  0  0  0  0  0  0  0  0
    9.2309    0.0720   -2.5702 C   0  0  0  0  0  0  0  0  0  0  0  0
    9.1410    1.2516   -2.8923 O   0  0  0  0  0  0  0  0  0  0  0  0
    8.2859   -1.0086   -3.0641 C   0  0  0  0  0  0  0  0  0  0  0  0
    7.0944   -0.4619   -3.8536 C   0  0  0  0  0  0  0  0  0  0  0  0
    6.0852    0.3050   -2.9959 C   0  0  0  0  0  0  0  0  0  0  0  0
    5.2899   -0.5828   -2.0558 C   0  0  0  0  0  0  0  0  0  0  0  0
    5.3606   -1.8067   -2.0530 O   0  0  0  0  0  0  0  0  0  0  0  0
    4.4746    0.1361   -1.2103 N   0  0  0  0  0  0  0  0  0  0  0  0
    3.5432   -0.5100   -0.3146 C   0  0  0  0  0  0  0  0  0  0  0  0
    2.1497   -0.4908   -0.8880 C   0  0  0  0  0  0  0  0  0  0  0  0
    1.2157    0.4679   -0.4750 C   0  0  0  0  0  0  0  0  0  0  0  0
   -0.0670    0.4911   -1.0281 C   0  0  0  0  0  0  0  0  0  0  0  0
   -0.4350   -0.4338   -2.0145 C   0  0  0  0  0  0  0  0  0  0  0  0
   -1.8266   -0.4234   -2.5861 C   0  0  0  0  0  0  0  0  0  0  0  0
   -2.7329   -1.1561   -1.7338 N   0  0  0  0  0  0  0  0  0  0  0  0
   -4.0873   -1.1472   -1.9801 C   0  0  0  0  0  0  0  0  0  0  0  0
   -4.6065   -0.4561   -2.8484 O   0  0  0  0  0  0  0  0  0  0  0  0
   -4.8582   -2.0702   -1.0542 C   0  0  0  0  0  0  0  0  0  0  0  0
   -6.3654   -2.0763   -1.3019 C   0  0  0  0  0  0  0  0  0  0  0  0
   -7.0467   -0.7827   -0.8531 C   0  0  0  0  0  0  0  0  0  0  0  0
   -8.5562   -0.8530   -0.9969 C   0  0  0  0  0  0  0  0  0  0  0  0
   -9.1678   -1.8874   -1.2395 O   0  0  0  0  0  0  0  0  0  0  0  0
   -9.1657    0.3654   -0.7959 N   0  0  0  0  0  0  0  0  0  0  0  0
  -10.6030    0.5065   -0.7624 C   0  0  0  0  0  0  0  0  0  0  0  0
  -11.0965    0.5824    0.6588 C   0  0  0  0  0  0  0  0  0  0  0  0
  -11.3397    1.8187    1.2700 C   0  0  0  0  0  0  0  0  0  0  0  0
  -11.7774    1.8784    2.5953 C   0  0  0  0  0  0  0  0  0  0  0  0
  -11.9773    0.7060    3.3381 C   0  0  0  0  0  0  0  0  0  0  0  0
  -12.4423    0.7769    4.7702 C   0  0  0  0  0  0  0  0  0  0  0  0
  -13.7501    1.4133    4.8790 N   0  0  0  0  0  0  0  0  0  0  0  0
  -11.7239   -0.5293    2.7282 C   0  0  0  0  0  0  0  0  0  0  0  0
  -11.2850   -0.5900    1.4032 C   0  0  0  0  0  0  0  0  0  0  0  0
    0.4981   -1.3938   -2.4260 C   0  0  0  0  0  0  0  0  0  0  0  0
    1.7796   -1.4180   -1.8718 C   0  0  0  0  0  0  0  0  0  0  0  0
    9.7467    1.7735    0.5756 C   0  0  0  0  0  0  0  0  0  0  0  0
    9.2909    2.0400    1.8691 C   0  0  0  0  0  0  0  0  0  0  0  0
   10.7973    2.7851    4.8246 H   0  0  0  0  0  0  0  0  0  0  0  0
    9.9542    2.2687    6.1227 H   0  0  0  0  0  0  0  0  0  0  0  0
    8.7747    0.6561    4.7500 H   0  0  0  0  0  0  0  0  0  0  0  0
    8.4886    2.3439    4.3369 H   0  0  0  0  0  0  0  0  0  0  0  0
   11.0297   -0.3505    3.5500 H   0  0  0  0  0  0  0  0  0  0  0  0
   11.8315   -0.8280    1.2723 H   0  0  0  0  0  0  0  0  0  0  0  0
   12.1109   -0.0574   -1.0363 H   0  0  0  0  0  0  0  0  0  0  0  0
   11.2793    1.3845   -1.6194 H   0  0  0  0  0  0  0  0  0  0  0  0
   10.1075   -1.3576   -1.3740 H   0  0  0  0  0  0  0  0  0  0  0  0
    7.9484   -1.6040   -2.2095 H   0  0  0  0  0  0  0  0  0  0  0  0
    8.8672   -1.6686   -3.7196 H   0  0  0  0  0  0  0  0  0  0  0  0
    6.5893   -1.2990   -4.3510 H   0  0  0  0  0  0  0  0  0  0  0  0
    7.4567    0.2029   -4.6473 H   0  0  0  0  0  0  0  0  0  0  0  0
    6.5803    1.0866   -2.4103 H   0  0  0  0  0  0  0  0  0  0  0  0
    5.3641    0.7953   -3.6615 H   0  0  0  0  0  0  0  0  0  0  0  0
    4.3448    1.1232   -1.3869 H   0  0  0  0  0  0  0  0  0  0  0  0
    3.5744    0.0376    0.6338 H   0  0  0  0  0  0  0  0  0  0  0  0
    3.8522   -1.5401   -0.1044 H   0  0  0  0  0  0  0  0  0  0  0  0
    1.4780    1.2026    0.2830 H   0  0  0  0  0  0  0  0  0  0  0  0
   -0.7822    1.2370   -0.6863 H   0  0  0  0  0  0  0  0  0  0  0  0
   -2.1895    0.6046   -2.7042 H   0  0  0  0  0  0  0  0  0  0  0  0
   -1.8444   -0.8834   -3.5812 H   0  0  0  0  0  0  0  0  0  0  0  0
   -2.3449   -1.8859   -1.1503 H   0  0  0  0  0  0  0  0  0  0  0  0
   -4.6454   -1.7878   -0.0166 H   0  0  0  0  0  0  0  0  0  0  0  0
   -4.4743   -3.0855   -1.2117 H   0  0  0  0  0  0  0  0  0  0  0  0
   -6.7990   -2.9207   -0.7512 H   0  0  0  0  0  0  0  0  0  0  0  0
   -6.5760   -2.2556   -2.3636 H   0  0  0  0  0  0  0  0  0  0  0  0
   -6.8226   -0.5893    0.2027 H   0  0  0  0  0  0  0  0  0  0  0  0
   -6.6835    0.0678   -1.4395 H   0  0  0  0  0  0  0  0  0  0  0  0
   -8.6121    1.1380   -0.4530 H   0  0  0  0  0  0  0  0  0  0  0  0
  -11.0902   -0.3207   -1.2909 H   0  0  0  0  0  0  0  0  0  0  0  0
  -10.8515    1.4267   -1.3027 H   0  0  0  0  0  0  0  0  0  0  0  0
  -11.1965    2.7452    0.7191 H   0  0  0  0  0  0  0  0  0  0  0  0
  -11.9741    2.8465    3.0527 H   0  0  0  0  0  0  0  0  0  0  0  0
  -11.7074    1.3378    5.3586 H   0  0  0  0  0  0  0  0  0  0  0  0
  -12.4985   -0.2284    5.2031 H   0  0  0  0  0  0  0  0  0  0  0  0
  -14.4093    0.9023    4.2928 H   0  0  0  0  0  0  0  0  0  0  0  0
  -14.0856    1.3226    5.8355 H   0  0  0  0  0  0  0  0  0  0  0  0
  -11.8639   -1.4567    3.2785 H   0  0  0  0  0  0  0  0  0  0  0  0
  -11.0858   -1.5598    0.9485 H   0  0  0  0  0  0  0  0  0  0  0  0
    0.2364   -2.1281   -3.1852 H   0  0  0  0  0  0  0  0  0  0  0  0
    2.4966   -2.1641   -2.2133 H   0  0  0  0  0  0  0  0  0  0  0  0
    9.3757    2.3703   -0.2566 H   0  0  0  0  0  0  0  0  0  0  0  0
    8.5771    2.8463    2.0199 H   0  0  0  0  0  0  0  0  0  0  0  0
  1  2  1  0
  2  3  1  0
  3  4  2  0
  4  5  1  0
  5  6  2  0
  6  7  1  0
  7  8  1  0
  8  9  1  0
  9 10  2  0
  9 11  1  0
 11 12  1  0
 12 13  1  0
 13 14  1  0
 14 15  2  0
 14 16  1  0
 16 17  1  0
 17 18  1  0
 18 19  2  0
 19 20  1  0
 20 21  2  0
 21 22  1  0
 22 23  1  0
 23 24  1  0
 24 25  2  0
 24 26  1  0
 26 27  1  0
 27 28  1  0
 28 29  1  0
 29 30  2  0
 29 31  1  0
 31 32  1  0
 32 33  1  0
 33 34  2  0
 34 35  1  0
 35 36  2  0
 36 37  1  0
 37 38  1  0
 36 39  1  0
 39 40  2  0
 21 41  1  0
 41 42  2  0
  6 43  1  0
 43 44  2  0
 44  3  1  0
 42 18  1  0
 40 33  1  0
  1 45  1  0
  1 46  1  0
  2 47  1  0
  2 48  1  0
  4 49  1  0
  5 50  1  0
  7 51  1  0
  7 52  1  0
  8 53  1  0
 11 54  1  0
 11 55  1  0
 12 56  1  0
 12 57  1  0
 13 58  1  0
 13 59  1  0
 16 60  1  0
 17 61  1  0
 17 62  1  0
 19 63  1  0
 20 64  1  0
 22 65  1  0
 22 66  1  0
 23 67  1  0
 26 68  1  0
 26 69  1  0
 27 70  1  0
 27 71  1  0
 28 72  1  0
 28 73  1  0
 31 74  1  0
 32 75  1  0
 32 76  1  0
 34 77  1  0
 35 78  1  0
 37 79  1  0
 37 80  1  0
 38 81  1  0
 38 82  1  0
 39 83  1  0
 40 84  1  0
 41 85  1  0
 42 86  1  0
 43 87  1  0
 44 88  1  0
M  END
$$$$
