
     RDKit          3D

 57 59  0  0  0  0  0  0  0  0999 V2000
    1.7836   -2.8660   -4.1670 C   0  0  0  0  0  0  0  0  0  0  0  0
    1.7353   -2.2853   -2.7808 C   0  0  0  0  0  0  0  0  0  0  0  0
    2.7197   -1.4796   -2.3430 C   0  0  0  0  0  0  0  0  0  0  0  0
    2.7988   -0.8980   -1.1059 N   0  0  0  0  0  0  0  0  0  0  0  0
    1.8189   -1.1152   -0.2760 C   0  0  0  0  0  0  0  0  0  0  0  0
    1.8009   -0.5965    1.0067 N   0  0  0  0  0  0  0  0  0  0  0  0
    2.6177    0.5419    1.3879 C   0  0  0  0  0  0  0  0  0  0  0  0
    2.5743    0.7356    2.9061 C   0  0  0  0  0  0  0  0  0  0  0  0
    3.3769    1.9339    3.3466 C   0  0  0  0  0  0  0  0  0  0  0  0
    2.7596    3.1797    3.5217 C   0  0  0  0  0  0  0  0  0  0  0  0
    3.5094    4.2910    3.9106 C   0  0  0  0  0  0  0  0  0  0  0  0
    4.8811    4.1684    4.1237 C   0  0  0  0  0  0  0  0  0  0  0  0
    5.5050    2.9350    3.9478 C   0  0  0  0  0  0  0  0  0  0  0  0
    4.7576    1.8223    3.5594 C   0  0  0  0  0  0  0  0  0  0  0  0
    0.5969   -1.9692   -0.6865 C   0  0  0  0  0  0  0  0  0  0  0  0
   -0.3562   -2.0358    0.0869 O   0  0  0  0  0  0  0  0  0  0  0  0
    0.6641   -2.5676   -1.9403 N   0  0  0  0  0  0  0  0  0  0  0  0
   -0.4655   -3.4012   -2.3427 C   0  0  0  0  0  0  0  0  0  0  0  0
   -1.5874   -2.5394   -2.9220 C   0  0  0  0  0  0  0  0  0  0  0  0
   -1.7411   -2.3805   -4.1300 O   0  0  0  0  0  0  0  0  0  0  0  0
   -2.3741   -1.9293   -1.9682 N   0  0  0  0  0  0  0  0  0  0  0  0
   -3.3259   -0.9116   -2.3451 C   0  0  0  0  0  0  0  0  0  0  0  0
   -4.1238   -0.4617   -1.1456 C   0  0  0  0  0  0  0  0  0  0  0  0
   -5.3410   -1.1129   -0.8698 C   0  0  0  0  0  0  0  0  0  0  0  0
   -6.1072   -0.7493    0.2351 C   0  0  0  0  0  0  0  0  0  0  0  0
   -7.5946   -1.5556    0.5484 Cl  0  0  0  0  0  0  0  0  0  0  0  0
   -5.6770    0.2612    1.0868 C   0  0  0  0  0  0  0  0  0  0  0  0
   -4.4660    0.9078    0.8356 C   0  0  0  0  0  0  0  0  0  0  0  0
   -3.6688    0.5505   -0.2686 C   0  0  0  0  0  0  0  0  0  0  0  0
   -2.3692    1.2903   -0.4917 C   0  0  0  0  0  0  0  0  0  0  0  0
   -2.5238    2.3214   -1.5068 N   0  0  0  0  0  0  0  0  0  0  0  0
    0.9050   -2.5692   -4.7471 H   0  0  0  0  0  0  0  0  0  0  0  0
    1.8348   -3.9588   -4.1274 H   0  0  0  0  0  0  0  0  0  0  0  0
    2.6639   -2.5237   -4.7227 H   0  0  0  0  0  0  0  0  0  0  0  0
    3.5597   -1.2479   -2.9952 H   0  0  0  0  0  0  0  0  0  0  0  0
    0.8951   -0.6754    1.4650 H   0  0  0  0  0  0  0  0  0  0  0  0
    3.6550    0.3874    1.0672 H   0  0  0  0  0  0  0  0  0  0  0  0
    2.2455    1.4397    0.8799 H   0  0  0  0  0  0  0  0  0  0  0  0
    2.9513   -0.1628    3.4125 H   0  0  0  0  0  0  0  0  0  0  0  0
    1.5352    0.8464    3.2429 H   0  0  0  0  0  0  0  0  0  0  0  0
    1.6906    3.2943    3.3583 H   0  0  0  0  0  0  0  0  0  0  0  0
    3.0236    5.2537    4.0472 H   0  0  0  0  0  0  0  0  0  0  0  0
    5.4643    5.0342    4.4262 H   0  0  0  0  0  0  0  0  0  0  0  0
    6.5753    2.8393    4.1121 H   0  0  0  0  0  0  0  0  0  0  0  0
    5.2605    0.8670    3.4234 H   0  0  0  0  0  0  0  0  0  0  0  0
   -0.8515   -3.9430   -1.4703 H   0  0  0  0  0  0  0  0  0  0  0  0
   -0.1706   -4.1603   -3.0726 H   0  0  0  0  0  0  0  0  0  0  0  0
   -2.0178   -1.9133   -1.0138 H   0  0  0  0  0  0  0  0  0  0  0  0
   -2.7887   -0.0821   -2.8154 H   0  0  0  0  0  0  0  0  0  0  0  0
   -3.9865   -1.3202   -3.1198 H   0  0  0  0  0  0  0  0  0  0  0  0
   -5.6892   -1.9088   -1.5253 H   0  0  0  0  0  0  0  0  0  0  0  0
   -6.2755    0.5493    1.9466 H   0  0  0  0  0  0  0  0  0  0  0  0
   -4.1440    1.6972    1.5119 H   0  0  0  0  0  0  0  0  0  0  0  0
   -2.0316    1.7498    0.4450 H   0  0  0  0  0  0  0  0  0  0  0  0
   -1.5788    0.5907   -0.7827 H   0  0  0  0  0  0  0  0  0  0  0  0
   -1.6594    2.8537   -1.5837 H   0  0  0  0  0  0  0  0  0  0  0  0
   -3.2443    2.9787   -1.2122 H   0  0  0  0  0  0  0  0  0  0  0  0
  1  2  1  0
  2  3  2  0
  3  4  1  0
  4  5  2  0
  5  6  1  0
  6  7  1  0
  7  8  1  0
  8  9  1  0
  9 10  2  0
 10 11  1  0
 11 12  2  0
 12 13  1  0
 13 14  2  0
  5 15  1  0
 15 16  2  0
 15 17  1  0
 17 18  1  0
 18 19  1  0
 19 20  2  0
 19 21  1  0
 21 22  1  0
 22 23  1  0
 23 24  2  0
 24 25  1  0
 25 26  1  0
 25 27  2  0
 27 28  1  0
 28 29  2  0
 29 30  1  0
 30 31  1  0
 17  2  1  0
 29 23  1  0
 14  9  1  0
  1 32  1  0
  1 33  1  0
  1 34  1  0
  3 35  1  0
  6 36  1  0
  7 37  1  0
  7 38  1  0
  8 39  1  0
  8 40  1  0
 10 41  1  0
 11 42  1  0
 12 43  1  0
 13 44  1  0
 14 45  1  0
 18 46  1  0
 18 47  1  0
 21 48  1  0
 22 49  1  0
 22 50  1  0
 24 51  1  0
 27 52  1  0
 28 53  1  0
 30 54  1  0
 30 55  1  0
 31 56  1  0
 31 57  1  0
M  END
$$$$
