
     RDKit          3D

 69 70  0  0  0  0  0  0  0  0999 V2000
   -3.4525    0.8101    4.3567 C   0  0  0  0  0  0  0  0  0  0  0  0
   -3.0819    1.1295    2.9032 C   0  0  0  0  0  0  0  0  0  0  0  0
   -1.8909    2.0837    2.8844 C   0  0  0  0  0  0  0  0  0  0  0  0
   -2.8469   -0.1917    2.1356 C   0  0  0  0  0  0  0  0  0  0  0  0
   -2.5580   -0.1058    0.6118 C   0  0  1  0  0  0  0  0  0  0  0  0
   -3.7663    0.6274   -0.0411 C   0  0  0  0  0  0  0  0  0  0  0  0
   -3.8104    1.8364   -0.2522 O   0  0  0  0  0  0  0  0  0  0  0  0
   -4.8263   -0.2155   -0.3470 N   0  0  0  0  0  0  0  0  0  0  0  0
   -6.1159    0.3574   -0.7472 C   0  0  1  0  0  0  0  0  0  0  0  0
   -6.8228   -0.5329   -1.7757 C   0  0  0  0  0  0  0  0  0  0  0  0
   -7.1726   -1.9326   -1.2638 C   0  0  0  0  0  0  0  0  0  0  0  0
   -7.8660   -2.7468   -2.3227 C   0  0  0  0  0  0  0  0  0  0  0  0
   -8.1076   -2.4204   -3.4708 O   0  0  0  0  0  0  0  0  0  0  0  0
   -8.2172   -3.9640   -1.8643 O   0  0  0  0  0  0  0  0  0  0  0  0
   -7.0209    0.6087    0.4662 C   0  0  0  0  0  0  0  0  0  0  0  0
   -8.1174    1.1450    0.4496 O   0  0  0  0  0  0  0  0  0  0  0  0
   -6.5402    0.0967    1.6231 O   0  0  0  0  0  0  0  0  0  0  0  0
   -1.2531    0.4908    0.1962 N   0  0  0  0  0  0  0  0  0  0  0  0
   -1.1326    0.4913   -1.2741 C   0  0  0  0  0  0  0  0  0  0  0  0
   -0.1066   -0.2352    0.7838 C   0  0  0  0  0  0  0  0  0  0  0  0
    1.2110    0.4681    0.5673 C   0  0  0  0  0  0  0  0  0  0  0  0
    1.5304    1.7890    0.8121 C   0  0  0  0  0  0  0  0  0  0  0  0
    2.8870    2.0845    0.4982 C   0  0  0  0  0  0  0  0  0  0  0  0
    3.5775    0.9832    0.0246 C   0  0  0  0  0  0  0  0  0  0  0  0
    4.9742    0.9519   -0.3822 C   0  0  0  0  0  0  0  0  0  0  0  0
    5.7247    1.9233   -0.3480 O   0  0  0  0  0  0  0  0  0  0  0  0
    5.3361   -0.3147   -0.8394 O   0  0  0  0  0  0  0  0  0  0  0  0
    6.6936   -0.4205   -1.1439 C   0  0  0  0  0  0  0  0  0  0  0  0
    7.0775   -0.4773   -2.4817 C   0  0  0  0  0  0  0  0  0  0  0  0
    8.4328   -0.6109   -2.7935 C   0  0  0  0  0  0  0  0  0  0  0  0
    9.3852   -0.7015   -1.7662 C   0  0  0  0  0  0  0  0  0  0  0  0
   10.8300   -0.8320   -2.0895 C   0  0  0  0  0  0  0  0  0  0  0  0
   11.2609   -1.4915   -3.1162 N   0  0  0  0  0  0  0  0  0  0  0  0
   11.7650   -0.2405   -1.2951 N   0  0  0  0  0  0  0  0  0  0  0  0
    8.9865   -0.6592   -0.4257 C   0  0  0  0  0  0  0  0  0  0  0  0
    7.6375   -0.5273   -0.1234 C   0  0  0  0  0  0  0  0  0  0  0  0
    7.2481   -0.5103    1.1590 F   0  0  0  0  0  0  0  0  0  0  0  0
    2.5636   -0.3969   -0.0278 S   0  0  0  0  0  0  0  0  0  0  0  0
   -4.3387    0.1681    4.4010 H   0  0  0  0  0  0  0  0  0  0  0  0
   -3.6800    1.7266    4.9117 H   0  0  0  0  0  0  0  0  0  0  0  0
   -2.6337    0.2962    4.8717 H   0  0  0  0  0  0  0  0  0  0  0  0
   -3.9404    1.6506    2.4632 H   0  0  0  0  0  0  0  0  0  0  0  0
   -0.9802    1.5940    3.2434 H   0  0  0  0  0  0  0  0  0  0  0  0
   -2.0783    2.9501    3.5285 H   0  0  0  0  0  0  0  0  0  0  0  0
   -1.7085    2.4739    1.8800 H   0  0  0  0  0  0  0  0  0  0  0  0
   -2.0662   -0.7735    2.6382 H   0  0  0  0  0  0  0  0  0  0  0  0
   -3.7549   -0.7999    2.2575 H   0  0  0  0  0  0  0  0  0  0  0  0
   -2.5724   -1.1390    0.2331 H   0  0  0  0  0  0  0  0  0  0  0  0
   -4.8822   -1.0551    0.2157 H   0  0  0  0  0  0  0  0  0  0  0  0
   -5.9330    1.3382   -1.2015 H   0  0  0  0  0  0  0  0  0  0  0  0
   -7.7434   -0.0361   -2.1092 H   0  0  0  0  0  0  0  0  0  0  0  0
   -6.1841   -0.6261   -2.6641 H   0  0  0  0  0  0  0  0  0  0  0  0
   -6.2646   -2.4705   -0.9722 H   0  0  0  0  0  0  0  0  0  0  0  0
   -7.8425   -1.8641   -0.4003 H   0  0  0  0  0  0  0  0  0  0  0  0
   -8.6574   -4.3896   -2.6307 H   0  0  0  0  0  0  0  0  0  0  0  0
   -7.2095    0.3686    2.2877 H   0  0  0  0  0  0  0  0  0  0  0  0
   -1.9199    1.0827   -1.7504 H   0  0  0  0  0  0  0  0  0  0  0  0
   -0.1968    0.9561   -1.6017 H   0  0  0  0  0  0  0  0  0  0  0  0
   -1.1713   -0.5241   -1.6857 H   0  0  0  0  0  0  0  0  0  0  0  0
   -0.2092   -0.3041    1.8714 H   0  0  0  0  0  0  0  0  0  0  0  0
   -0.0746   -1.2658    0.4063 H   0  0  0  0  0  0  0  0  0  0  0  0
    0.8146    2.5103    1.1899 H   0  0  0  0  0  0  0  0  0  0  0  0
    3.3413    3.0629    0.6120 H   0  0  0  0  0  0  0  0  0  0  0  0
    6.3366   -0.4056   -3.2728 H   0  0  0  0  0  0  0  0  0  0  0  0
    8.7392   -0.6188   -3.8368 H   0  0  0  0  0  0  0  0  0  0  0  0
   10.4943   -1.9400   -3.6246 H   0  0  0  0  0  0  0  0  0  0  0  0
   11.5191    0.6677   -0.9183 H   0  0  0  0  0  0  0  0  0  0  0  0
   12.6735   -0.2354   -1.7503 H   0  0  0  0  0  0  0  0  0  0  0  0
    9.7076   -0.7478    0.3807 H   0  0  0  0  0  0  0  0  0  0  0  0
  1  2  1  0
  2  3  1  0
  2  4  1  0
  4  5  1  0
  5  6  1  0
  6  7  2  0
  6  8  1  0
  8  9  1  0
  9 10  1  0
 10 11  1  0
 11 12  1  0
 12 13  2  0
 12 14  1  0
  9 15  1  0
 15 16  2  0
 15 17  1  0
  5 18  1  0
 18 19  1  0
 18 20  1  0
 20 21  1  0
 21 22  2  0
 22 23  1  0
 23 24  2  0
 24 25  1  0
 25 26  2  0
 25 27  1  0
 27 28  1  0
 28 29  2  0
 29 30  1  0
 30 31  2  0
 31 32  1  0
 32 33  2  3
 32 34  1  0
 31 35  1  0
 35 36  2  0
 36 37  1  0
 24 38  1  0
 38 21  1  0
 36 28  1  0
  1 39  1  0
  1 40  1  0
  1 41  1  0
  2 42  1  0
  3 43  1  0
  3 44  1  0
  3 45  1  0
  4 46  1  0
  4 47  1  0
  5 48  1  6
  8 49  1  0
  9 50  1  6
 10 51  1  0
 10 52  1  0
 11 53  1  0
 11 54  1  0
 14 55  1  0
 17 56  1  0
 19 57  1  0
 19 58  1  0
 19 59  1  0
 20 60  1  0
 20 61  1  0
 22 62  1  0
 23 63  1  0
 29 64  1  0
 30 65  1  0
 33 66  1  0
 34 67  1  0
 34 68  1  0
 35 69  1  0
M  END
$$$$
