
     RDKit          3D

 60 63  0  0  0  0  0  0  0  0999 V2000
   -3.6453   -1.4845   -1.8078 C   0  0  0  0  0  0  0  0  0  0  0  0
   -4.8839   -0.8124   -1.2891 C   0  0  0  0  0  0  0  0  0  0  0  0
   -5.8295   -1.6464   -0.7848 N   0  0  0  0  0  0  0  0  0  0  0  0
   -6.9593   -1.1226   -0.2878 C   0  0  0  0  0  0  0  0  0  0  0  0
   -7.9121   -2.0050    0.2309 N   0  0  0  0  0  0  0  0  0  0  0  0
   -7.1924    0.2439   -0.2682 C   0  0  0  0  0  0  0  0  0  0  0  0
   -6.2264    1.0991   -0.7900 C   0  0  0  0  0  0  0  0  0  0  0  0
   -5.0459    0.5759   -1.3276 C   0  0  0  0  0  0  0  0  0  0  0  0
   -3.9994    1.5060   -1.8702 C   0  0  0  0  0  0  0  0  0  0  0  0
   -3.0792    1.9167   -0.8382 N   0  0  0  0  0  0  0  0  0  0  0  0
   -2.1053    2.8557   -1.1080 C   0  0  0  0  0  0  0  0  0  0  0  0
   -2.0441    3.4769   -2.1660 O   0  0  0  0  0  0  0  0  0  0  0  0
   -1.0667    3.0150    0.0030 C   0  0  0  0  0  0  0  0  0  0  0  0
   -0.0223    1.9959   -0.1270 N   0  0  0  0  0  0  0  0  0  0  0  0
    1.1750    2.2440   -0.8094 C   0  0  0  0  0  0  0  0  0  0  0  0
    1.4284    3.5939   -1.4260 C   0  0  0  0  0  0  0  0  0  0  0  0
    2.0954    1.2685   -0.9216 C   0  0  0  0  0  0  0  0  0  0  0  0
    1.8817   -0.0359   -0.3442 C   0  0  0  0  0  0  0  0  0  0  0  0
    0.7456   -0.3057    0.3113 C   0  0  0  0  0  0  0  0  0  0  0  0
   -0.3216    0.7403    0.4138 C   0  0  0  0  0  0  0  0  0  0  0  0
   -1.4021    0.4599    0.9371 O   0  0  0  0  0  0  0  0  0  0  0  0
    0.5092   -1.5468    0.8436 N   0  0  0  0  0  0  0  0  0  0  0  0
    1.4326   -2.5570    0.9019 C   0  0  0  0  0  0  0  0  0  0  0  0
    1.1259   -3.6805    1.2920 O   0  0  0  0  0  0  0  0  0  0  0  0
    2.8715   -2.1709    0.5858 C   0  0  2  0  0  0  0  0  0  0  0  0
    3.5218   -1.7048    1.9032 C   0  0  0  0  0  0  0  0  0  0  0  0
    5.0107   -1.4768    1.7968 C   0  0  0  0  0  0  0  0  0  0  0  0
    5.8859   -2.5602    1.6407 C   0  0  0  0  0  0  0  0  0  0  0  0
    7.2610   -2.3485    1.5320 C   0  0  0  0  0  0  0  0  0  0  0  0
    7.7742   -1.0540    1.5806 C   0  0  0  0  0  0  0  0  0  0  0  0
    6.9134    0.0301    1.7406 C   0  0  0  0  0  0  0  0  0  0  0  0
    5.5378   -0.1792    1.8496 C   0  0  0  0  0  0  0  0  0  0  0  0
    2.9186   -1.1093   -0.5267 C   0  0  0  0  0  0  0  0  0  0  0  0
   -2.7552   -1.0940   -1.3056 H   0  0  0  0  0  0  0  0  0  0  0  0
   -3.5535   -1.3324   -2.8874 H   0  0  0  0  0  0  0  0  0  0  0  0
   -3.6829   -2.5636   -1.6240 H   0  0  0  0  0  0  0  0  0  0  0  0
   -8.0650   -1.7985    1.2124 H   0  0  0  0  0  0  0  0  0  0  0  0
   -8.7904   -1.8857   -0.2626 H   0  0  0  0  0  0  0  0  0  0  0  0
   -8.1087    0.6485    0.1462 H   0  0  0  0  0  0  0  0  0  0  0  0
   -6.3961    2.1731   -0.7736 H   0  0  0  0  0  0  0  0  0  0  0  0
   -3.4284    1.0430   -2.6824 H   0  0  0  0  0  0  0  0  0  0  0  0
   -4.4667    2.4001   -2.3013 H   0  0  0  0  0  0  0  0  0  0  0  0
   -2.8775    1.2537   -0.0880 H   0  0  0  0  0  0  0  0  0  0  0  0
   -1.5652    2.9118    0.9748 H   0  0  0  0  0  0  0  0  0  0  0  0
   -0.6580    4.0288   -0.0221 H   0  0  0  0  0  0  0  0  0  0  0  0
    2.3807    3.6223   -1.9677 H   0  0  0  0  0  0  0  0  0  0  0  0
    1.4765    4.3691   -0.6546 H   0  0  0  0  0  0  0  0  0  0  0  0
    0.6456    3.8500   -2.1458 H   0  0  0  0  0  0  0  0  0  0  0  0
    3.0273    1.4395   -1.4550 H   0  0  0  0  0  0  0  0  0  0  0  0
   -0.4250   -1.7477    1.1912 H   0  0  0  0  0  0  0  0  0  0  0  0
    3.3781   -3.0712    0.2152 H   0  0  0  0  0  0  0  0  0  0  0  0
    3.0330   -0.7949    2.2754 H   0  0  0  0  0  0  0  0  0  0  0  0
    3.3530   -2.4558    2.6876 H   0  0  0  0  0  0  0  0  0  0  0  0
    5.5019   -3.5779    1.6082 H   0  0  0  0  0  0  0  0  0  0  0  0
    7.9323   -3.1951    1.4132 H   0  0  0  0  0  0  0  0  0  0  0  0
    8.8456   -0.8907    1.4987 H   0  0  0  0  0  0  0  0  0  0  0  0
    7.3145    1.0393    1.7840 H   0  0  0  0  0  0  0  0  0  0  0  0
    4.8809    0.6784    1.9762 H   0  0  0  0  0  0  0  0  0  0  0  0
    3.9219   -0.6754   -0.5968 H   0  0  0  0  0  0  0  0  0  0  0  0
    2.7280   -1.5960   -1.4931 H   0  0  0  0  0  0  0  0  0  0  0  0
  1  2  1  0
  2  3  2  0
  3  4  1  0
  4  5  1  0
  4  6  2  0
  6  7  1  0
  7  8  2  0
  8  9  1  0
  9 10  1  0
 10 11  1  0
 11 12  2  0
 11 13  1  0
 13 14  1  0
 14 15  1  0
 15 16  1  0
 15 17  2  0
 17 18  1  0
 18 19  2  0
 19 20  1  0
 20 21  2  0
 19 22  1  0
 22 23  1  0
 23 24  2  0
 23 25  1  0
 25 26  1  0
 26 27  1  0
 27 28  2  0
 28 29  1  0
 29 30  2  0
 30 31  1  0
 31 32  2  0
 25 33  1  0
  8  2  1  0
 20 14  1  0
 32 27  1  0
 33 18  1  0
  1 34  1  0
  1 35  1  0
  1 36  1  0
  5 37  1  0
  5 38  1  0
  6 39  1  0
  7 40  1  0
  9 41  1  0
  9 42  1  0
 10 43  1  0
 13 44  1  0
 13 45  1  0
 16 46  1  0
 16 47  1  0
 16 48  1  0
 17 49  1  0
 22 50  1  0
 25 51  1  6
 26 52  1  0
 26 53  1  0
 28 54  1  0
 29 55  1  0
 30 56  1  0
 31 57  1  0
 32 58  1  0
 33 59  1  0
 33 60  1  0
M  END
$$$$
