
     RDKit          3D

 56 59  0  0  0  0  0  0  0  0999 V2000
   -4.3407   -3.3893    1.7476 C   0  0  0  0  0  0  0  0  0  0  0  0
   -3.8009   -3.6131    0.4104 N   0  0  0  0  0  0  0  0  0  0  0  0
   -2.9157   -2.3641   -0.3051 S   0  0  0  0  0  0  0  0  0  0  0  0
   -2.1178   -3.0110   -1.3229 O   0  0  0  0  0  0  0  0  0  0  0  0
   -2.3376   -1.6012    0.7792 O   0  0  0  0  0  0  0  0  0  0  0  0
   -4.1330   -1.3714   -1.1420 C   0  0  0  0  0  0  0  0  0  0  0  0
   -5.4335   -1.8751   -1.3113 C   0  0  0  0  0  0  0  0  0  0  0  0
   -6.4100   -1.1031   -1.9395 C   0  0  0  0  0  0  0  0  0  0  0  0
   -6.0946    0.1689   -2.4040 C   0  0  0  0  0  0  0  0  0  0  0  0
   -4.7992    0.6667   -2.2489 C   0  0  0  0  0  0  0  0  0  0  0  0
   -3.7912   -0.0914   -1.6211 C   0  0  0  0  0  0  0  0  0  0  0  0
   -2.4443    0.4856   -1.5303 C   0  0  0  0  0  0  0  0  0  0  0  0
   -2.1353    1.4371   -0.5510 C   0  0  0  0  0  0  0  0  0  0  0  0
   -0.8527    1.9903   -0.4724 C   0  0  0  0  0  0  0  0  0  0  0  0
    0.1471    1.6125   -1.3763 C   0  0  0  0  0  0  0  0  0  0  0  0
    1.4142    2.2060   -1.2136 N   0  0  0  0  0  0  0  0  0  0  0  0
    2.5630    1.9756   -1.9522 C   0  0  0  0  0  0  0  0  0  0  0  0
    2.6448    1.2842   -2.9650 O   0  0  0  0  0  0  0  0  0  0  0  0
    3.7885    2.7312   -1.4448 C   0  0  0  0  0  0  0  0  0  0  0  0
    3.9418    2.7108    0.0472 C   0  0  0  0  0  0  0  0  0  0  0  0
    4.0536    3.8127    0.8737 C   0  0  0  0  0  0  0  0  0  0  0  0
    4.1623    3.3736    2.1657 N   0  0  0  0  0  0  0  0  0  0  0  0
    4.1059    2.0000    2.2075 C   0  0  0  0  0  0  0  0  0  0  0  0
    4.1479    1.1326    3.3058 C   0  0  0  0  0  0  0  0  0  0  0  0
    4.0703   -0.2394    3.0495 C   0  0  0  0  0  0  0  0  0  0  0  0
    3.9724   -0.7173    1.7413 C   0  0  0  0  0  0  0  0  0  0  0  0
    3.8897   -2.1813    1.5097 C   0  0  0  0  0  0  0  0  0  0  0  0
    4.5193   -2.7704    0.5444 N   0  0  0  0  0  0  0  0  0  0  0  0
    3.1205   -2.9582    2.3239 N   0  0  0  0  0  0  0  0  0  0  0  0
    3.9331    0.1633    0.6512 C   0  0  0  0  0  0  0  0  0  0  0  0
    3.9941    1.5525    0.8905 C   0  0  0  0  0  0  0  0  0  0  0  0
   -0.1577    0.6725   -2.3590 C   0  0  0  0  0  0  0  0  0  0  0  0
   -1.4405    0.1146   -2.4347 C   0  0  0  0  0  0  0  0  0  0  0  0
   -3.5478   -3.4672    2.4962 H   0  0  0  0  0  0  0  0  0  0  0  0
   -5.0858   -4.1612    1.9612 H   0  0  0  0  0  0  0  0  0  0  0  0
   -4.8335   -2.4165    1.8233 H   0  0  0  0  0  0  0  0  0  0  0  0
   -3.3853   -4.5218    0.2053 H   0  0  0  0  0  0  0  0  0  0  0  0
   -5.7003   -2.8709   -0.9685 H   0  0  0  0  0  0  0  0  0  0  0  0
   -7.4151   -1.4968   -2.0709 H   0  0  0  0  0  0  0  0  0  0  0  0
   -6.8516    0.7728   -2.8985 H   0  0  0  0  0  0  0  0  0  0  0  0
   -4.5680    1.6585   -2.6365 H   0  0  0  0  0  0  0  0  0  0  0  0
   -2.8890    1.7414    0.1721 H   0  0  0  0  0  0  0  0  0  0  0  0
   -0.6491    2.7131    0.3129 H   0  0  0  0  0  0  0  0  0  0  0  0
    1.5114    2.8203   -0.4138 H   0  0  0  0  0  0  0  0  0  0  0  0
    3.7191    3.7611   -1.8138 H   0  0  0  0  0  0  0  0  0  0  0  0
    4.6806    2.2775   -1.8931 H   0  0  0  0  0  0  0  0  0  0  0  0
    4.0713    4.8722    0.6519 H   0  0  0  0  0  0  0  0  0  0  0  0
    4.2632    3.9671    2.9781 H   0  0  0  0  0  0  0  0  0  0  0  0
    4.2376    1.5030    4.3220 H   0  0  0  0  0  0  0  0  0  0  0  0
    4.1084   -0.9397    3.8815 H   0  0  0  0  0  0  0  0  0  0  0  0
    5.0863   -2.1007    0.0150 H   0  0  0  0  0  0  0  0  0  0  0  0
    2.2393   -2.5383    2.5995 H   0  0  0  0  0  0  0  0  0  0  0  0
    2.9834   -3.8720    1.9011 H   0  0  0  0  0  0  0  0  0  0  0  0
    3.8236   -0.2175   -0.3608 H   0  0  0  0  0  0  0  0  0  0  0  0
    0.5814    0.3365   -3.0794 H   0  0  0  0  0  0  0  0  0  0  0  0
   -1.6433   -0.6251   -3.2078 H   0  0  0  0  0  0  0  0  0  0  0  0
  1  2  1  0
  2  3  1  0
  3  4  2  0
  3  5  2  0
  3  6  1  0
  6  7  2  0
  7  8  1  0
  8  9  2  0
  9 10  1  0
 10 11  2  0
 11 12  1  0
 12 13  2  0
 13 14  1  0
 14 15  2  0
 15 16  1  0
 16 17  1  0
 17 18  2  0
 17 19  1  0
 19 20  1  0
 20 21  2  0
 21 22  1  0
 22 23  1  0
 23 24  2  0
 24 25  1  0
 25 26  2  0
 26 27  1  0
 27 28  2  3
 27 29  1  0
 26 30  1  0
 30 31  2  0
 15 32  1  0
 32 33  2  0
 11  6  1  0
 33 12  1  0
 31 20  1  0
 31 23  1  0
  1 34  1  0
  1 35  1  0
  1 36  1  0
  2 37  1  0
  7 38  1  0
  8 39  1  0
  9 40  1  0
 10 41  1  0
 13 42  1  0
 14 43  1  0
 16 44  1  0
 19 45  1  0
 19 46  1  0
 21 47  1  0
 22 48  1  0
 24 49  1  0
 25 50  1  0
 28 51  1  0
 29 52  1  0
 29 53  1  0
 30 54  1  0
 32 55  1  0
 33 56  1  0
M  END
$$$$
