
     RDKit          3D

 60 63  0  0  0  0  0  0  0  0999 V2000
    2.5600   -3.6224   -2.3794 C   0  0  0  0  0  0  0  0  0  0  0  0
    3.2454   -2.4445   -2.7883 O   0  0  0  0  0  0  0  0  0  0  0  0
    3.3041   -1.4194   -1.8860 C   0  0  0  0  0  0  0  0  0  0  0  0
    3.8114   -0.2248   -2.3918 C   0  0  0  0  0  0  0  0  0  0  0  0
    3.8987    0.9067   -1.5818 C   0  0  0  0  0  0  0  0  0  0  0  0
    3.4571    0.8575   -0.2492 C   0  0  0  0  0  0  0  0  0  0  0  0
    3.4582    2.0808    0.4723 N   0  0  0  0  0  0  0  0  0  0  0  0
    4.5416    2.8947    0.3726 N   0  0  0  0  0  0  0  0  0  0  0  0
    4.3535    3.8451    1.3059 C   0  0  0  0  0  0  0  0  0  0  0  0
    5.3823    4.9001    1.6177 C   0  0  0  0  0  0  0  0  0  0  0  0
    6.5410    4.3686    2.0893 F   0  0  0  0  0  0  0  0  0  0  0  0
    4.9424    5.7677    2.5710 F   0  0  0  0  0  0  0  0  0  0  0  0
    5.7000    5.6531    0.5317 F   0  0  0  0  0  0  0  0  0  0  0  0
    3.0687    3.7181    1.8802 C   0  0  0  0  0  0  0  0  0  0  0  0
    2.4565    2.6550    1.2350 C   0  0  0  0  0  0  0  0  0  0  0  0
    1.0568    2.2865    1.3528 C   0  0  0  0  0  0  0  0  0  0  0  0
    0.4365    2.5530    2.3779 O   0  0  0  0  0  0  0  0  0  0  0  0
    0.4992    1.7275    0.2155 N   0  0  0  0  0  0  0  0  0  0  0  0
   -0.8025    1.2093    0.0560 C   0  0  0  0  0  0  0  0  0  0  0  0
   -1.8125    1.3076    1.0115 C   0  0  0  0  0  0  0  0  0  0  0  0
   -3.0631    0.7204    0.7838 C   0  0  0  0  0  0  0  0  0  0  0  0
   -3.3222    0.0068   -0.3939 C   0  0  0  0  0  0  0  0  0  0  0  0
   -4.6187   -0.6452   -0.6095 C   0  0  0  0  0  0  0  0  0  0  0  0
   -5.6517    0.1105   -1.1980 C   0  0  0  0  0  0  0  0  0  0  0  0
   -6.9132   -0.4404   -1.4352 C   0  0  0  0  0  0  0  0  0  0  0  0
   -7.1714   -1.7623   -1.0891 C   0  0  0  0  0  0  0  0  0  0  0  0
   -6.1688   -2.5342   -0.5045 C   0  0  0  0  0  0  0  0  0  0  0  0
   -4.8995   -1.9820   -0.2620 C   0  0  0  0  0  0  0  0  0  0  0  0
   -3.6754   -3.0331    0.4801 S   0  0  0  0  0  0  0  0  0  0  0  0
   -3.3363   -2.2683    1.9336 N   0  0  0  0  0  0  0  0  0  0  0  0
   -4.2995   -4.2800    0.8673 O   0  0  0  0  0  0  0  0  0  0  0  0
   -2.4662   -3.0160   -0.3086 O   0  0  0  0  0  0  0  0  0  0  0  0
   -2.3154   -0.0608   -1.3635 C   0  0  0  0  0  0  0  0  0  0  0  0
   -1.0700    0.5341   -1.1410 C   0  0  0  0  0  0  0  0  0  0  0  0
    3.0265   -0.3622    0.3095 C   0  0  0  0  0  0  0  0  0  0  0  0
    2.7816   -0.5804    1.7857 C   0  0  0  0  0  0  0  0  0  0  0  0
    1.3738   -0.7831    2.0741 N   0  0  0  0  0  0  0  0  0  0  0  0
    2.9370   -1.4890   -0.5404 C   0  0  0  0  0  0  0  0  0  0  0  0
    2.5079   -4.2947   -3.2411 H   0  0  0  0  0  0  0  0  0  0  0  0
    1.5340   -3.3990   -2.0680 H   0  0  0  0  0  0  0  0  0  0  0  0
    3.1106   -4.1393   -1.5868 H   0  0  0  0  0  0  0  0  0  0  0  0
    4.1315   -0.1710   -3.4300 H   0  0  0  0  0  0  0  0  0  0  0  0
    4.2788    1.8323   -2.0125 H   0  0  0  0  0  0  0  0  0  0  0  0
    2.6044    4.3710    2.6100 H   0  0  0  0  0  0  0  0  0  0  0  0
    1.1041    1.5899   -0.5807 H   0  0  0  0  0  0  0  0  0  0  0  0
   -1.6629    1.8312    1.9501 H   0  0  0  0  0  0  0  0  0  0  0  0
   -3.8312    0.8063    1.5507 H   0  0  0  0  0  0  0  0  0  0  0  0
   -5.4715    1.1481   -1.4781 H   0  0  0  0  0  0  0  0  0  0  0  0
   -7.6924    0.1657   -1.8914 H   0  0  0  0  0  0  0  0  0  0  0  0
   -8.1525   -2.1931   -1.2743 H   0  0  0  0  0  0  0  0  0  0  0  0
   -6.3867   -3.5677   -0.2412 H   0  0  0  0  0  0  0  0  0  0  0  0
   -2.3849   -1.8979    1.9269 H   0  0  0  0  0  0  0  0  0  0  0  0
   -3.5533   -2.8837    2.7163 H   0  0  0  0  0  0  0  0  0  0  0  0
   -2.4843   -0.6045   -2.2912 H   0  0  0  0  0  0  0  0  0  0  0  0
   -0.3058    0.4322   -1.9079 H   0  0  0  0  0  0  0  0  0  0  0  0
    3.1642    0.2527    2.3823 H   0  0  0  0  0  0  0  0  0  0  0  0
    3.3535   -1.4574    2.1141 H   0  0  0  0  0  0  0  0  0  0  0  0
    1.0402   -1.6319    1.6223 H   0  0  0  0  0  0  0  0  0  0  0  0
    1.2464   -0.9140    3.0761 H   0  0  0  0  0  0  0  0  0  0  0  0
    2.6038   -2.4302   -0.1118 H   0  0  0  0  0  0  0  0  0  0  0  0
  1  2  1  0
  2  3  1  0
  3  4  2  0
  4  5  1  0
  5  6  2  0
  6  7  1  0
  7  8  1  0
  8  9  2  0
  9 10  1  0
 10 11  1  0
 10 12  1  0
 10 13  1  0
  9 14  1  0
 14 15  2  0
 15 16  1  0
 16 17  2  0
 16 18  1  0
 18 19  1  0
 19 20  2  0
 20 21  1  0
 21 22  2  0
 22 23  1  0
 23 24  2  0
 24 25  1  0
 25 26  2  0
 26 27  1  0
 27 28  2  0
 28 29  1  0
 29 30  1  0
 29 31  2  0
 29 32  2  0
 22 33  1  0
 33 34  2  0
  6 35  1  0
 35 36  1  0
 36 37  1  0
 35 38  2  0
 38  3  1  0
 15  7  1  0
 34 19  1  0
 28 23  1  0
  1 39  1  0
  1 40  1  0
  1 41  1  0
  4 42  1  0
  5 43  1  0
 14 44  1  0
 18 45  1  0
 20 46  1  0
 21 47  1  0
 24 48  1  0
 25 49  1  0
 26 50  1  0
 27 51  1  0
 30 52  1  0
 30 53  1  0
 33 54  1  0
 34 55  1  0
 36 56  1  0
 36 57  1  0
 37 58  1  0
 37 59  1  0
 38 60  1  0
M  END
$$$$
