
     RDKit          3D

 43 45  0  0  0  0  0  0  0  0999 V2000
   -7.2782    1.3993   -0.3011 C   0  0  0  0  0  0  0  0  0  0  0  0
   -6.5428    1.1727    0.8604 C   0  0  0  0  0  0  0  0  0  0  0  0
   -5.3292    0.4865    0.7957 C   0  0  0  0  0  0  0  0  0  0  0  0
   -4.8358    0.0228   -0.4332 C   0  0  0  0  0  0  0  0  0  0  0  0
   -3.5334   -0.7401   -0.4940 C   0  0  0  0  0  0  0  0  0  0  0  0
   -2.5036    0.0554    0.0914 O   0  0  0  0  0  0  0  0  0  0  0  0
   -1.2544   -0.4953    0.1636 C   0  0  0  0  0  0  0  0  0  0  0  0
   -0.2933    0.3214    0.7624 C   0  0  0  0  0  0  0  0  0  0  0  0
    1.0261   -0.1135    0.9018 C   0  0  0  0  0  0  0  0  0  0  0  0
    1.4050   -1.3792    0.4410 C   0  0  0  0  0  0  0  0  0  0  0  0
    2.8383   -1.8423    0.5683 C   0  0  0  0  0  0  0  0  0  0  0  0
    3.6404   -1.7072   -0.7344 C   0  0  0  0  0  0  0  0  0  0  0  0
    3.7630   -0.3200   -1.1886 N   0  0  0  0  0  0  0  0  0  0  0  0
    4.5613    0.6025   -0.5089 C   0  0  0  0  0  0  0  0  0  0  0  0
    5.6647    0.2525    0.2678 C   0  0  0  0  0  0  0  0  0  0  0  0
    6.4305    1.2545    0.8495 C   0  0  0  0  0  0  0  0  0  0  0  0
    6.1920    2.5722    0.6966 N   0  0  0  0  0  0  0  0  0  0  0  0
    5.1517    2.8979   -0.0950 C   0  0  0  0  0  0  0  0  0  0  0  0
    4.3331    1.9658   -0.7159 C   0  0  0  0  0  0  0  0  0  0  0  0
    0.4398   -2.1962   -0.1608 C   0  0  0  0  0  0  0  0  0  0  0  0
   -0.8824   -1.7576   -0.2981 C   0  0  0  0  0  0  0  0  0  0  0  0
   -5.5866    0.2542   -1.5944 C   0  0  0  0  0  0  0  0  0  0  0  0
   -6.8008    0.9407   -1.5276 C   0  0  0  0  0  0  0  0  0  0  0  0
   -8.2221    1.9353   -0.2507 H   0  0  0  0  0  0  0  0  0  0  0  0
   -6.9120    1.5322    1.8172 H   0  0  0  0  0  0  0  0  0  0  0  0
   -4.7608    0.3190    1.7085 H   0  0  0  0  0  0  0  0  0  0  0  0
   -3.6616   -1.6796    0.0582 H   0  0  0  0  0  0  0  0  0  0  0  0
   -3.2799   -0.9605   -1.5382 H   0  0  0  0  0  0  0  0  0  0  0  0
   -0.5752    1.3074    1.1244 H   0  0  0  0  0  0  0  0  0  0  0  0
    1.7557    0.5455    1.3686 H   0  0  0  0  0  0  0  0  0  0  0  0
    3.3302   -1.2960    1.3823 H   0  0  0  0  0  0  0  0  0  0  0  0
    2.8361   -2.8951    0.8786 H   0  0  0  0  0  0  0  0  0  0  0  0
    3.1373   -2.2688   -1.5311 H   0  0  0  0  0  0  0  0  0  0  0  0
    4.6261   -2.1722   -0.6238 H   0  0  0  0  0  0  0  0  0  0  0  0
    2.8557    0.0713   -1.4413 H   0  0  0  0  0  0  0  0  0  0  0  0
    5.9519   -0.7781    0.4297 H   0  0  0  0  0  0  0  0  0  0  0  0
    7.2893    1.0095    1.4677 H   0  0  0  0  0  0  0  0  0  0  0  0
    4.9866    3.9626   -0.2304 H   0  0  0  0  0  0  0  0  0  0  0  0
    3.5248    2.3079   -1.3529 H   0  0  0  0  0  0  0  0  0  0  0  0
    0.7088   -3.1842   -0.5285 H   0  0  0  0  0  0  0  0  0  0  0  0
   -1.5921   -2.4281   -0.7706 H   0  0  0  0  0  0  0  0  0  0  0  0
   -5.2304   -0.0944   -2.5609 H   0  0  0  0  0  0  0  0  0  0  0  0
   -7.3740    1.1194   -2.4336 H   0  0  0  0  0  0  0  0  0  0  0  0
  1  2  2  0
  2  3  1  0
  3  4  2  0
  4  5  1  0
  5  6  1  0
  6  7  1  0
  7  8  2  0
  8  9  1  0
  9 10  2  0
 10 11  1  0
 11 12  1  0
 12 13  1  0
 13 14  1  0
 14 15  2  0
 15 16  1  0
 16 17  2  0
 17 18  1  0
 18 19  2  0
 10 20  1  0
 20 21  2  0
  4 22  1  0
 22 23  2  0
 23  1  1  0
 21  7  1  0
 19 14  1  0
  1 24  1  0
  2 25  1  0
  3 26  1  0
  5 27  1  0
  5 28  1  0
  8 29  1  0
  9 30  1  0
 11 31  1  0
 11 32  1  0
 12 33  1  0
 12 34  1  0
 13 35  1  0
 15 36  1  0
 16 37  1  0
 18 38  1  0
 19 39  1  0
 20 40  1  0
 21 41  1  0
 22 42  1  0
 23 43  1  0
M  END
$$$$
