
     RDKit          3D

 52 53  0  0  0  0  0  0  0  0999 V2000
   -2.2663   -0.7793   -0.4807 C   0  0  0  0  0  0  0  0  0  0  0  0
   -2.7843    0.2518    0.5251 C   0  0  0  0  0  0  0  0  0  0  0  0
   -1.7445    0.5765    1.6115 C   0  0  0  0  0  0  0  0  0  0  0  0
   -0.5412    1.3076    1.0807 C   0  0  0  0  0  0  0  0  0  0  0  0
    0.7206    0.8042    0.8319 C   0  0  0  0  0  0  0  0  0  0  0  0
    1.6352    1.7940    0.3327 C   0  0  0  0  0  0  0  0  0  0  0  0
    3.0377    1.5979   -0.0335 C   0  0  0  0  0  0  0  0  0  0  0  0
    3.7493    2.5041   -0.4534 O   0  0  0  0  0  0  0  0  0  0  0  0
    3.4389    0.2764    0.1535 O   0  0  0  0  0  0  0  0  0  0  0  0
    4.7751    0.0275   -0.1712 C   0  0  0  0  0  0  0  0  0  0  0  0
    5.7961    0.4490    0.6811 C   0  0  0  0  0  0  0  0  0  0  0  0
    7.1209    0.1506    0.3581 C   0  0  0  0  0  0  0  0  0  0  0  0
    7.4061   -0.5817   -0.8010 C   0  0  0  0  0  0  0  0  0  0  0  0
    8.8126   -0.9050   -1.1515 C   0  0  0  0  0  0  0  0  0  0  0  0
    9.1641   -2.0870   -1.5467 N   0  0  0  0  0  0  0  0  0  0  0  0
    9.7842    0.0409   -1.0647 N   0  0  0  0  0  0  0  0  0  0  0  0
    6.3701   -1.0185   -1.6372 C   0  0  0  0  0  0  0  0  0  0  0  0
    5.0457   -0.7172   -1.3179 C   0  0  0  0  0  0  0  0  0  0  0  0
    1.0073    3.0227    0.2343 C   0  0  0  0  0  0  0  0  0  0  0  0
   -0.6252    2.9801    0.7327 S   0  0  0  0  0  0  0  0  0  0  0  0
   -4.0546   -0.2774    1.1832 C   0  0  0  0  0  0  0  0  0  0  0  0
   -4.0825   -0.7256    2.3242 O   0  0  0  0  0  0  0  0  0  0  0  0
   -5.1709   -0.2218    0.3727 N   0  0  0  0  0  0  0  0  0  0  0  0
   -6.4208   -0.8787    0.7840 C   0  0  1  0  0  0  0  0  0  0  0  0
   -7.6283   -0.1450    0.2138 C   0  0  0  0  0  0  0  0  0  0  0  0
   -8.0331    0.9600    1.1389 C   0  0  0  0  0  0  0  0  0  0  0  0
   -8.3888    0.8394    2.2982 O   0  0  0  0  0  0  0  0  0  0  0  0
   -7.9869    2.1723    0.5559 O   0  0  0  0  0  0  0  0  0  0  0  0
   -6.4665   -2.3312    0.3026 C   0  0  0  0  0  0  0  0  0  0  0  0
   -7.3329   -3.1502    0.5665 O   0  0  0  0  0  0  0  0  0  0  0  0
   -5.4712   -2.6632   -0.5510 O   0  0  0  0  0  0  0  0  0  0  0  0
   -3.0239   -1.0219   -1.2328 H   0  0  0  0  0  0  0  0  0  0  0  0
   -1.3868   -0.4089   -1.0160 H   0  0  0  0  0  0  0  0  0  0  0  0
   -1.9945   -1.7152    0.0201 H   0  0  0  0  0  0  0  0  0  0  0  0
   -3.0512    1.1701   -0.0139 H   0  0  0  0  0  0  0  0  0  0  0  0
   -2.2064    1.1836    2.4022 H   0  0  0  0  0  0  0  0  0  0  0  0
   -1.4145   -0.3488    2.1031 H   0  0  0  0  0  0  0  0  0  0  0  0
    0.9798   -0.2355    1.0008 H   0  0  0  0  0  0  0  0  0  0  0  0
    5.5682    1.0069    1.5847 H   0  0  0  0  0  0  0  0  0  0  0  0
    7.9168    0.4705    1.0239 H   0  0  0  0  0  0  0  0  0  0  0  0
    8.3631   -2.7257   -1.5511 H   0  0  0  0  0  0  0  0  0  0  0  0
    9.6636    0.8319   -0.4485 H   0  0  0  0  0  0  0  0  0  0  0  0
   10.7215   -0.3449   -1.0965 H   0  0  0  0  0  0  0  0  0  0  0  0
    6.5927   -1.5722   -2.5461 H   0  0  0  0  0  0  0  0  0  0  0  0
    4.2388   -1.0527   -1.9626 H   0  0  0  0  0  0  0  0  0  0  0  0
    1.4403    3.9548   -0.1070 H   0  0  0  0  0  0  0  0  0  0  0  0
   -4.9982   -0.1844   -0.6249 H   0  0  0  0  0  0  0  0  0  0  0  0
   -6.4484   -0.9183    1.8792 H   0  0  0  0  0  0  0  0  0  0  0  0
   -7.4170    0.2573   -0.7844 H   0  0  0  0  0  0  0  0  0  0  0  0
   -8.5036   -0.7969    0.1079 H   0  0  0  0  0  0  0  0  0  0  0  0
   -8.2696    2.7891    1.2648 H   0  0  0  0  0  0  0  0  0  0  0  0
   -5.6367   -3.6124   -0.7378 H   0  0  0  0  0  0  0  0  0  0  0  0
  1  2  1  0
  2  3  1  0
  3  4  1  0
  4  5  2  0
  5  6  1  0
  6  7  1  0
  7  8  2  0
  7  9  1  0
  9 10  1  0
 10 11  2  0
 11 12  1  0
 12 13  2  0
 13 14  1  0
 14 15  2  3
 14 16  1  0
 13 17  1  0
 17 18  2  0
  6 19  2  0
 19 20  1  0
  2 21  1  0
 21 22  2  0
 21 23  1  0
 23 24  1  0
 24 25  1  0
 25 26  1  0
 26 27  2  0
 26 28  1  0
 24 29  1  0
 29 30  2  0
 29 31  1  0
 20  4  1  0
 18 10  1  0
  1 32  1  0
  1 33  1  0
  1 34  1  0
  2 35  1  0
  3 36  1  0
  3 37  1  0
  5 38  1  0
 11 39  1  0
 12 40  1  0
 15 41  1  0
 16 42  1  0
 16 43  1  0
 17 44  1  0
 18 45  1  0
 19 46  1  0
 23 47  1  0
 24 48  1  1
 25 49  1  0
 25 50  1  0
 28 51  1  0
 31 52  1  0
M  END
$$$$
