
     RDKit          3D

 92 97  0  0  0  0  0  0  0  0999 V2000
    7.1349   -3.2935    1.2504 C   0  0  0  0  0  0  0  0  0  0  0  0
    6.5005   -2.2667    0.3695 C   0  0  0  0  0  0  0  0  0  0  0  0
    6.6483   -2.3833   -0.8839 O   0  0  0  0  0  0  0  0  0  0  0  0
    5.7414   -1.1736    0.9254 N   0  0  0  0  0  0  0  0  0  0  0  0
    5.1797   -0.2487   -0.0529 C   0  0  2  0  0  0  0  0  0  0  0  0
    5.8385    1.0856    0.2467 C   0  0  0  0  0  0  0  0  0  0  0  0
    7.3008    1.0307    0.1094 C   0  0  0  0  0  0  0  0  0  0  0  0
    8.1515    0.6940    1.1672 C   0  0  0  0  0  0  0  0  0  0  0  0
    9.5080    0.6483    1.0176 C   0  0  0  0  0  0  0  0  0  0  0  0
   10.0308    0.9483   -0.2267 C   0  0  0  0  0  0  0  0  0  0  0  0
    9.2008    1.2805   -1.2717 C   0  0  0  0  0  0  0  0  0  0  0  0
    7.8391    1.3301   -1.1364 C   0  0  0  0  0  0  0  0  0  0  0  0
    3.7079   -0.0682    0.1797 C   0  0  0  0  0  0  0  0  0  0  0  0
    3.2849   -0.6320    1.2388 O   0  0  0  0  0  0  0  0  0  0  0  0
    2.9026    0.6617   -0.7123 N   0  0  0  0  0  0  0  0  0  0  0  0
    3.4799    1.2630   -1.9451 C   0  0  0  0  0  0  0  0  0  0  0  0
    2.3916    0.9468   -2.9544 C   0  0  0  0  0  0  0  0  0  0  0  0
    1.1803    0.4884   -2.1873 C   0  0  0  0  0  0  0  0  0  0  0  0
    1.5270    1.0299   -0.7803 C   0  0  1  0  0  0  0  0  0  0  0  0
    0.6046    0.5320    0.2206 C   0  0  0  0  0  0  0  0  0  0  0  0
    0.8306   -0.1376    1.2339 O   0  0  0  0  0  0  0  0  0  0  0  0
   -0.8024    0.8626    0.0117 N   0  0  0  0  0  0  0  0  0  0  0  0
   -1.7949    0.4187    0.9458 C   0  0  1  0  0  0  0  0  0  0  0  0
   -2.6652    1.5417    1.4848 C   0  0  0  0  0  0  0  0  0  0  0  0
   -1.8728    2.5989    2.2033 C   0  0  0  0  0  0  0  0  0  0  0  0
   -2.7588    3.7015    2.7453 C   0  0  0  0  0  0  0  0  0  0  0  0
   -3.4655    4.3159    1.6482 N   0  0  0  0  0  0  0  0  0  0  0  0
   -4.6843    3.9167    1.1959 C   0  0  0  0  0  0  0  0  0  0  0  0
   -5.0896    4.6965    0.1503 C   0  0  0  0  0  0  0  0  0  0  0  0
   -4.0976    5.5964   -0.0463 N   0  0  0  0  0  0  0  0  0  0  0  0
   -3.1290    5.3534    0.8628 C   0  0  0  0  0  0  0  0  0  0  0  0
   -1.9290    6.1053    0.9560 N   0  0  0  0  0  0  0  0  0  0  0  0
   -1.0290    5.9076    1.7716 O   0  0  0  0  0  0  0  0  0  0  0  0
   -1.7653    7.1450    0.0520 O   0  0  0  0  0  0  0  0  0  0  0  0
   -2.7214   -0.7129    0.2969 B   0  0  0  0  0  0  0  0  0  0  0  0
   -2.5220   -2.1687    0.3522 O   0  0  0  0  0  0  0  0  0  0  0  0
   -3.8169   -2.6109    0.6403 C   0  0  2  0  0  0  0  0  0  0  0  0
   -3.9323   -4.0040    0.1049 C   0  0  0  0  0  0  0  0  0  0  0  0
   -4.6113   -4.0360   -1.2453 C   0  0  0  0  0  0  0  0  0  0  0  0
   -4.2636   -2.7804   -2.0320 C   0  0  0  0  0  0  0  0  0  0  0  0
   -5.4006   -2.1104   -1.2469 C   0  0  0  0  0  0  0  0  0  0  0  0
   -6.0115   -3.4601   -1.1672 C   0  0  0  0  0  0  0  0  0  0  0  0
   -6.7802   -3.8285    0.0679 C   0  0  0  0  0  0  0  0  0  0  0  0
   -6.7733   -3.7904   -2.4221 C   0  0  0  0  0  0  0  0  0  0  0  0
   -4.7672   -1.6167    0.0290 C   0  0  1  0  0  0  0  0  0  0  0  0
   -5.7662   -1.1120    1.0357 C   0  0  0  0  0  0  0  0  0  0  0  0
   -3.9961   -0.5129   -0.3432 O   0  0  0  0  0  0  0  0  0  0  0  0
    6.5399   -4.2298    1.2277 H   0  0  0  0  0  0  0  0  0  0  0  0
    7.1808   -2.9498    2.2982 H   0  0  0  0  0  0  0  0  0  0  0  0
    8.1576   -3.5453    0.8994 H   0  0  0  0  0  0  0  0  0  0  0  0
    5.6152   -1.0685    1.9543 H   0  0  0  0  0  0  0  0  0  0  0  0
    5.4259   -0.5517   -1.0581 H   0  0  0  0  0  0  0  0  0  0  0  0
    5.6486    1.2752    1.3465 H   0  0  0  0  0  0  0  0  0  0  0  0
    5.3310    1.8788   -0.2901 H   0  0  0  0  0  0  0  0  0  0  0  0
    7.7146    0.4604    2.1434 H   0  0  0  0  0  0  0  0  0  0  0  0
   10.1749    0.3906    1.8280 H   0  0  0  0  0  0  0  0  0  0  0  0
   11.0873    0.9312   -0.4173 H   0  0  0  0  0  0  0  0  0  0  0  0
    9.6041    1.5214   -2.2602 H   0  0  0  0  0  0  0  0  0  0  0  0
    7.1760    1.5888   -1.9515 H   0  0  0  0  0  0  0  0  0  0  0  0
    3.5739    2.3562   -1.8128 H   0  0  0  0  0  0  0  0  0  0  0  0
    4.4413    0.8364   -2.2082 H   0  0  0  0  0  0  0  0  0  0  0  0
    2.1176    1.8748   -3.4757 H   0  0  0  0  0  0  0  0  0  0  0  0
    2.7506    0.1534   -3.6311 H   0  0  0  0  0  0  0  0  0  0  0  0
    1.1582   -0.6206   -2.0383 H   0  0  0  0  0  0  0  0  0  0  0  0
    0.2415    0.9052   -2.5540 H   0  0  0  0  0  0  0  0  0  0  0  0
    1.4980    2.1515   -0.8745 H   0  0  0  0  0  0  0  0  0  0  0  0
   -1.0954    1.4231   -0.8188 H   0  0  0  0  0  0  0  0  0  0  0  0
   -1.2932   -0.0747    1.7951 H   0  0  0  0  0  0  0  0  0  0  0  0
   -3.2690    1.9945    0.6522 H   0  0  0  0  0  0  0  0  0  0  0  0
   -3.3968    1.1344    2.2035 H   0  0  0  0  0  0  0  0  0  0  0  0
   -1.3763    2.1494    3.0780 H   0  0  0  0  0  0  0  0  0  0  0  0
   -1.1225    3.0291    1.5066 H   0  0  0  0  0  0  0  0  0  0  0  0
   -3.4842    3.3102    3.4953 H   0  0  0  0  0  0  0  0  0  0  0  0
   -2.1529    4.4817    3.2376 H   0  0  0  0  0  0  0  0  0  0  0  0
   -5.2574    3.1048    1.5964 H   0  0  0  0  0  0  0  0  0  0  0  0
   -5.9974    4.6556   -0.4377 H   0  0  0  0  0  0  0  0  0  0  0  0
   -3.9249   -2.5615    1.7466 H   0  0  0  0  0  0  0  0  0  0  0  0
   -4.5047   -4.6669    0.7985 H   0  0  0  0  0  0  0  0  0  0  0  0
   -2.9379   -4.4898   -0.0223 H   0  0  0  0  0  0  0  0  0  0  0  0
   -4.4915   -4.9847   -1.7686 H   0  0  0  0  0  0  0  0  0  0  0  0
   -4.5482   -2.9189   -3.1122 H   0  0  0  0  0  0  0  0  0  0  0  0
   -3.2749   -2.3524   -1.8620 H   0  0  0  0  0  0  0  0  0  0  0  0
   -5.9179   -1.3121   -1.7757 H   0  0  0  0  0  0  0  0  0  0  0  0
   -6.8856   -4.9494    0.0298 H   0  0  0  0  0  0  0  0  0  0  0  0
   -6.2522   -3.6286    1.0004 H   0  0  0  0  0  0  0  0  0  0  0  0
   -7.7934   -3.4287   -0.0173 H   0  0  0  0  0  0  0  0  0  0  0  0
   -6.5870   -3.0527   -3.2501 H   0  0  0  0  0  0  0  0  0  0  0  0
   -6.4474   -4.8098   -2.7292 H   0  0  0  0  0  0  0  0  0  0  0  0
   -7.8799   -3.7337   -2.2679 H   0  0  0  0  0  0  0  0  0  0  0  0
   -5.7189    0.0012    1.1871 H   0  0  0  0  0  0  0  0  0  0  0  0
   -6.7869   -1.3081    0.6880 H   0  0  0  0  0  0  0  0  0  0  0  0
   -5.5780   -1.5223    2.0615 H   0  0  0  0  0  0  0  0  0  0  0  0
  1  2  1  0
  2  3  2  0
  2  4  1  0
  4  5  1  0
  5  6  1  0
  6  7  1  0
  7  8  2  0
  8  9  1  0
  9 10  2  0
 10 11  1  0
 11 12  2  0
  5 13  1  0
 13 14  2  0
 13 15  1  0
 15 16  1  0
 16 17  1  0
 17 18  1  0
 18 19  1  0
 19 20  1  0
 20 21  2  0
 20 22  1  0
 22 23  1  0
 23 24  1  0
 24 25  1  0
 25 26  1  0
 26 27  1  0
 27 28  1  0
 28 29  2  0
 29 30  1  0
 30 31  2  0
 31 32  1  0
 32 33  2  0
 32 34  1  0
 23 35  1  0
 35 36  1  0
 36 37  1  0
 37 38  1  0
 38 39  1  0
 39 40  1  0
 40 41  1  0
 41 42  1  0
 42 43  1  0
 42 44  1  0
 41 45  1  0
 45 46  1  1
 45 47  1  0
 12  7  1  0
 19 15  1  0
 31 27  1  0
 47 35  1  0
 45 37  1  0
 42 39  1  0
  1 48  1  0
  1 49  1  0
  1 50  1  0
  4 51  1  0
  5 52  1  6
  6 53  1  0
  6 54  1  0
  8 55  1  0
  9 56  1  0
 10 57  1  0
 11 58  1  0
 12 59  1  0
 16 60  1  0
 16 61  1  0
 17 62  1  0
 17 63  1  0
 18 64  1  0
 18 65  1  0
 19 66  1  6
 22 67  1  0
 23 68  1  1
 24 69  1  0
 24 70  1  0
 25 71  1  0
 25 72  1  0
 26 73  1  0
 26 74  1  0
 28 75  1  0
 29 76  1  0
 37 77  1  1
 38 78  1  0
 38 79  1  0
 39 80  1  0
 40 81  1  0
 40 82  1  0
 41 83  1  0
 43 84  1  0
 43 85  1  0
 43 86  1  0
 44 87  1  0
 44 88  1  0
 44 89  1  0
 46 90  1  0
 46 91  1  0
 46 92  1  0
M  CHG  2  32   1  34  -1
M  END
$$$$
