
     RDKit          3D

 79 83  0  0  0  0  0  0  0  0999 V2000
    2.1365    1.1637    1.8224 C   0  0  0  0  0  0  0  0  0  0  0  0
    2.9937    0.6841    0.6922 C   0  0  0  0  0  0  0  0  0  0  0  0
    4.1304   -0.0312    0.9007 C   0  0  0  0  0  0  0  0  0  0  0  0
    4.9475   -0.4931   -0.1430 C   0  0  0  0  0  0  0  0  0  0  0  0
    6.1416   -1.1914    0.2414 C   0  0  0  0  0  0  0  0  0  0  0  0
    7.0743   -0.4530    0.9804 C   0  0  0  0  0  0  0  0  0  0  0  0
    8.2616   -0.9731    1.4169 C   0  0  0  0  0  0  0  0  0  0  0  0
    8.5306   -2.2848    1.1054 C   0  0  0  0  0  0  0  0  0  0  0  0
    7.6243   -3.0124    0.3850 C   0  0  0  0  0  0  0  0  0  0  0  0
    6.4095   -2.4953   -0.0674 C   0  0  0  0  0  0  0  0  0  0  0  0
    5.4981   -3.3849   -0.8284 C   0  0  0  0  0  0  0  0  0  0  0  0
    6.0716   -4.6628   -0.8844 F   0  0  0  0  0  0  0  0  0  0  0  0
    4.2458   -3.4664   -0.2723 F   0  0  0  0  0  0  0  0  0  0  0  0
    5.3887   -3.0074   -2.1730 F   0  0  0  0  0  0  0  0  0  0  0  0
    4.5344   -0.1796   -1.4069 C   0  0  0  0  0  0  0  0  0  0  0  0
    3.3735    0.5527   -1.6589 C   0  0  0  0  0  0  0  0  0  0  0  0
    2.5993    0.9867   -0.5999 C   0  0  0  0  0  0  0  0  0  0  0  0
    1.3531    1.7701   -0.8267 C   0  0  0  0  0  0  0  0  0  0  0  0
    1.5184    2.8772   -1.3411 O   0  0  0  0  0  0  0  0  0  0  0  0
    0.1464    1.1763   -0.4411 N   0  0  0  0  0  0  0  0  0  0  0  0
   -1.1899    1.5742   -0.4729 C   0  0  1  0  0  0  0  0  0  0  0  0
   -1.7845    2.6576   -1.2313 C   0  0  0  0  0  0  0  0  0  0  0  0
   -1.3997    4.0480   -0.9310 C   0  0  0  0  0  0  0  0  0  0  0  0
   -1.7985    4.3620    0.5278 C   0  0  0  0  0  0  0  0  0  0  0  0
   -1.4750    5.7249    0.8937 N   0  0  0  0  0  0  0  0  0  0  0  0
   -1.9839    6.7512    0.3582 C   0  0  0  0  0  0  0  0  0  0  0  0
   -1.5450    8.0296    0.8515 N   0  0  0  0  0  0  0  0  0  0  0  0
   -2.9435    6.7830   -0.6755 N   0  0  0  0  0  0  0  0  0  0  0  0
   -2.0815    0.2441   -0.6455 B   0  0  0  0  0  0  0  0  0  0  0  0
   -1.6129   -0.9928   -1.2614 O   0  0  0  0  0  0  0  0  0  0  0  0
   -2.0775   -2.0352   -0.4749 C   0  0  2  0  0  0  0  0  0  0  0  0
   -2.6057   -3.0829   -1.4203 C   0  0  0  0  0  0  0  0  0  0  0  0
   -4.0993   -3.1727   -1.3726 C   0  0  0  0  0  0  0  0  0  0  0  0
   -4.7390   -1.8063   -1.2098 C   0  0  0  0  0  0  0  0  0  0  0  0
   -4.4692   -1.9898    0.2924 C   0  0  0  0  0  0  0  0  0  0  0  0
   -4.6254   -3.4436    0.0115 C   0  0  0  0  0  0  0  0  0  0  0  0
   -6.1232   -3.7401   -0.0935 C   0  0  0  0  0  0  0  0  0  0  0  0
   -3.9251   -4.4361    0.8331 C   0  0  0  0  0  0  0  0  0  0  0  0
   -3.0759   -1.4994    0.4778 C   0  0  1  0  0  0  0  0  0  0  0  0
   -2.5787   -1.6407    1.9023 C   0  0  0  0  0  0  0  0  0  0  0  0
   -3.1417   -0.1092    0.2379 O   0  0  0  0  0  0  0  0  0  0  0  0
    2.7631    1.6324    2.6133 H   0  0  0  0  0  0  0  0  0  0  0  0
    1.4458    1.9579    1.4925 H   0  0  0  0  0  0  0  0  0  0  0  0
    1.6008    0.3358    2.2978 H   0  0  0  0  0  0  0  0  0  0  0  0
    4.4024   -0.2557    1.9319 H   0  0  0  0  0  0  0  0  0  0  0  0
    6.8734    0.5847    1.2336 H   0  0  0  0  0  0  0  0  0  0  0  0
    8.9656   -0.3801    1.9855 H   0  0  0  0  0  0  0  0  0  0  0  0
    9.4680   -2.6972    1.4530 H   0  0  0  0  0  0  0  0  0  0  0  0
    7.8683   -4.0512    0.1532 H   0  0  0  0  0  0  0  0  0  0  0  0
    5.0944   -0.4651   -2.2753 H   0  0  0  0  0  0  0  0  0  0  0  0
    3.0788    0.7859   -2.6803 H   0  0  0  0  0  0  0  0  0  0  0  0
    0.2991    0.1695   -0.0071 H   0  0  0  0  0  0  0  0  0  0  0  0
   -1.3508    1.9490    0.6300 H   0  0  0  0  0  0  0  0  0  0  0  0
   -1.8523    2.4626   -2.3463 H   0  0  0  0  0  0  0  0  0  0  0  0
   -2.9053    2.6129   -0.9756 H   0  0  0  0  0  0  0  0  0  0  0  0
   -0.3722    4.3662   -1.0023 H   0  0  0  0  0  0  0  0  0  0  0  0
   -2.0132    4.7821   -1.5552 H   0  0  0  0  0  0  0  0  0  0  0  0
   -1.2738    3.7210    1.2489 H   0  0  0  0  0  0  0  0  0  0  0  0
   -2.9039    4.2369    0.6311 H   0  0  0  0  0  0  0  0  0  0  0  0
   -2.2412    8.7571    1.0719 H   0  0  0  0  0  0  0  0  0  0  0  0
   -0.5284    8.2487    0.9957 H   0  0  0  0  0  0  0  0  0  0  0  0
   -3.8351    6.2258   -0.5497 H   0  0  0  0  0  0  0  0  0  0  0  0
   -2.7862    7.3337   -1.5344 H   0  0  0  0  0  0  0  0  0  0  0  0
   -1.1814   -2.4485    0.0680 H   0  0  0  0  0  0  0  0  0  0  0  0
   -2.1172   -4.0353   -1.2344 H   0  0  0  0  0  0  0  0  0  0  0  0
   -2.3614   -2.8363   -2.4952 H   0  0  0  0  0  0  0  0  0  0  0  0
   -4.5729   -3.7092   -2.1888 H   0  0  0  0  0  0  0  0  0  0  0  0
   -5.8339   -1.8668   -1.3806 H   0  0  0  0  0  0  0  0  0  0  0  0
   -4.2076   -0.9661   -1.6770 H   0  0  0  0  0  0  0  0  0  0  0  0
   -5.1971   -1.4829    0.9298 H   0  0  0  0  0  0  0  0  0  0  0  0
   -6.4691   -3.8217   -1.1298 H   0  0  0  0  0  0  0  0  0  0  0  0
   -6.7449   -2.9517    0.3760 H   0  0  0  0  0  0  0  0  0  0  0  0
   -6.3729   -4.6942    0.4102 H   0  0  0  0  0  0  0  0  0  0  0  0
   -3.4275   -4.0946    1.7388 H   0  0  0  0  0  0  0  0  0  0  0  0
   -4.6304   -5.2521    1.1738 H   0  0  0  0  0  0  0  0  0  0  0  0
   -3.1445   -5.0259    0.2685 H   0  0  0  0  0  0  0  0  0  0  0  0
   -2.1022   -0.6954    2.2863 H   0  0  0  0  0  0  0  0  0  0  0  0
   -3.3891   -1.8553    2.6238 H   0  0  0  0  0  0  0  0  0  0  0  0
   -1.7500   -2.3780    1.9193 H   0  0  0  0  0  0  0  0  0  0  0  0
  1  2  1  0
  2  3  2  0
  3  4  1  0
  4  5  1  0
  5  6  2  0
  6  7  1  0
  7  8  2  0
  8  9  1  0
  9 10  2  0
 10 11  1  0
 11 12  1  0
 11 13  1  0
 11 14  1  0
  4 15  2  0
 15 16  1  0
 16 17  2  0
 17 18  1  0
 18 19  2  0
 18 20  1  0
 20 21  1  0
 21 22  1  0
 22 23  1  0
 23 24  1  0
 24 25  1  0
 25 26  2  3
 26 27  1  0
 26 28  1  0
 21 29  1  0
 29 30  1  0
 30 31  1  0
 31 32  1  0
 32 33  1  0
 33 34  1  0
 34 35  1  0
 35 36  1  0
 36 37  1  0
 36 38  1  0
 35 39  1  0
 39 40  1  1
 39 41  1  0
 17  2  1  0
 41 29  1  0
 10  5  1  0
 39 31  1  0
 36 33  1  0
  1 42  1  0
  1 43  1  0
  1 44  1  0
  3 45  1  0
  6 46  1  0
  7 47  1  0
  8 48  1  0
  9 49  1  0
 15 50  1  0
 16 51  1  0
 20 52  1  0
 21 53  1  1
 22 54  1  0
 22 55  1  0
 23 56  1  0
 23 57  1  0
 24 58  1  0
 24 59  1  0
 27 60  1  0
 27 61  1  0
 28 62  1  0
 28 63  1  0
 31 64  1  1
 32 65  1  0
 32 66  1  0
 33 67  1  0
 34 68  1  0
 34 69  1  0
 35 70  1  0
 37 71  1  0
 37 72  1  0
 37 73  1  0
 38 74  1  0
 38 75  1  0
 38 76  1  0
 40 77  1  0
 40 78  1  0
 40 79  1  0
M  END
$$$$
