
     RDKit          3D

 60 62  0  0  0  0  0  0  0  0999 V2000
    4.5238    4.3237   -3.5435 C   0  0  0  0  0  0  0  0  0  0  0  0
    5.5804    3.4632   -3.9526 O   0  0  0  0  0  0  0  0  0  0  0  0
    5.9765    2.5010   -3.0653 C   0  0  0  0  0  0  0  0  0  0  0  0
    7.0429    1.7075   -3.5033 C   0  0  0  0  0  0  0  0  0  0  0  0
    7.5576    0.6873   -2.6998 C   0  0  0  0  0  0  0  0  0  0  0  0
    7.0028    0.4478   -1.4461 C   0  0  0  0  0  0  0  0  0  0  0  0
    5.9301    1.2324   -1.0139 C   0  0  0  0  0  0  0  0  0  0  0  0
    5.2300    0.9295    0.5909 S   0  0  0  0  0  0  0  0  0  0  0  0
    6.3055    0.5086    1.4629 O   0  0  0  0  0  0  0  0  0  0  0  0
    4.3755    2.0497    0.9211 O   0  0  0  0  0  0  0  0  0  0  0  0
    4.2303   -0.4067    0.2414 N   0  0  0  0  0  0  0  0  0  0  0  0
    3.4652   -0.7965    1.3868 C   0  0  0  0  0  0  0  0  0  0  0  0
    4.0591   -1.4841    2.3668 C   0  0  0  0  0  0  0  0  0  0  0  0
    3.2799   -1.8947    3.5110 C   0  0  0  0  0  0  0  0  0  0  0  0
    1.9766   -1.5909    3.5886 C   0  0  0  0  0  0  0  0  0  0  0  0
    1.3371   -0.8816    2.5822 N   0  0  0  0  0  0  0  0  0  0  0  0
   -0.0941   -0.6184    2.6713 C   0  0  0  0  0  0  0  0  0  0  0  0
   -0.9257   -1.7613    2.0775 C   0  0  0  0  0  0  0  0  0  0  0  0
   -0.5590   -2.9339    2.0675 O   0  0  0  0  0  0  0  0  0  0  0  0
   -2.1595   -1.3635    1.6062 N   0  0  0  0  0  0  0  0  0  0  0  0
   -3.1271   -2.3338    1.1498 C   0  0  0  0  0  0  0  0  0  0  0  0
   -4.2175   -1.6702    0.3448 C   0  0  0  0  0  0  0  0  0  0  0  0
   -4.1099   -1.6471   -1.0565 C   0  0  0  0  0  0  0  0  0  0  0  0
   -5.0907   -1.0335   -1.8332 C   0  0  0  0  0  0  0  0  0  0  0  0
   -6.1823   -0.4260   -1.2114 C   0  0  0  0  0  0  0  0  0  0  0  0
   -7.2201    0.2310   -2.0450 C   0  0  0  0  0  0  0  0  0  0  0  0
   -7.7079   -0.3371   -3.1013 N   0  0  0  0  0  0  0  0  0  0  0  0
   -7.6968    1.4616   -1.7220 N   0  0  0  0  0  0  0  0  0  0  0  0
   -6.2969   -0.4261    0.1836 C   0  0  0  0  0  0  0  0  0  0  0  0
   -5.3172   -1.0459    0.9667 C   0  0  0  0  0  0  0  0  0  0  0  0
   -5.3251   -1.0811    2.3371 O   0  0  0  0  0  0  0  0  0  0  0  0
   -6.5072   -0.6439    2.9975 C   0  0  0  0  0  0  0  0  0  0  0  0
    2.0008   -0.4856    1.4225 C   0  0  0  0  0  0  0  0  0  0  0  0
    1.4798    0.0809    0.4622 O   0  0  0  0  0  0  0  0  0  0  0  0
    5.4171    2.2638   -1.8108 C   0  0  0  0  0  0  0  0  0  0  0  0
    4.8022    4.8945   -2.6514 H   0  0  0  0  0  0  0  0  0  0  0  0
    3.5983    3.7614   -3.3814 H   0  0  0  0  0  0  0  0  0  0  0  0
    4.3423    5.0378   -4.3525 H   0  0  0  0  0  0  0  0  0  0  0  0
    7.4807    1.8920   -4.4822 H   0  0  0  0  0  0  0  0  0  0  0  0
    8.3912    0.0859   -3.0538 H   0  0  0  0  0  0  0  0  0  0  0  0
    7.4045   -0.3425   -0.8156 H   0  0  0  0  0  0  0  0  0  0  0  0
    3.5656   -0.1057   -0.4838 H   0  0  0  0  0  0  0  0  0  0  0  0
    5.1111   -1.7469    2.3395 H   0  0  0  0  0  0  0  0  0  0  0  0
    3.7738   -2.4576    4.2967 H   0  0  0  0  0  0  0  0  0  0  0  0
    1.3750   -1.9055    4.4370 H   0  0  0  0  0  0  0  0  0  0  0  0
   -0.3823   -0.4868    3.7205 H   0  0  0  0  0  0  0  0  0  0  0  0
   -0.3249    0.3122    2.1399 H   0  0  0  0  0  0  0  0  0  0  0  0
   -2.5050   -0.4400    1.8317 H   0  0  0  0  0  0  0  0  0  0  0  0
   -2.6185   -3.1005    0.5528 H   0  0  0  0  0  0  0  0  0  0  0  0
   -3.5389   -2.8498    2.0248 H   0  0  0  0  0  0  0  0  0  0  0  0
   -3.2520   -2.1044   -1.5473 H   0  0  0  0  0  0  0  0  0  0  0  0
   -4.9850   -1.0089   -2.9152 H   0  0  0  0  0  0  0  0  0  0  0  0
   -7.2986   -1.2662   -3.2414 H   0  0  0  0  0  0  0  0  0  0  0  0
   -7.6430    1.7969   -0.7717 H   0  0  0  0  0  0  0  0  0  0  0  0
   -8.5442    1.7060   -2.2233 H   0  0  0  0  0  0  0  0  0  0  0  0
   -7.1613    0.0472    0.6338 H   0  0  0  0  0  0  0  0  0  0  0  0
   -6.6561    0.4320    2.8608 H   0  0  0  0  0  0  0  0  0  0  0  0
   -6.3786   -0.8283    4.0684 H   0  0  0  0  0  0  0  0  0  0  0  0
   -7.3823   -1.2116    2.6641 H   0  0  0  0  0  0  0  0  0  0  0  0
    4.5924    2.8624   -1.4371 H   0  0  0  0  0  0  0  0  0  0  0  0
  1  2  1  0
  2  3  1  0
  3  4  2  0
  4  5  1  0
  5  6  2  0
  6  7  1  0
  7  8  1  0
  8  9  2  0
  8 10  2  0
  8 11  1  0
 11 12  1  0
 12 13  2  0
 13 14  1  0
 14 15  2  0
 15 16  1  0
 16 17  1  0
 17 18  1  0
 18 19  2  0
 18 20  1  0
 20 21  1  0
 21 22  1  0
 22 23  2  0
 23 24  1  0
 24 25  2  0
 25 26  1  0
 26 27  2  3
 26 28  1  0
 25 29  1  0
 29 30  2  0
 30 31  1  0
 31 32  1  0
 16 33  1  0
 33 34  2  0
  7 35  2  0
 35  3  1  0
 33 12  1  0
 30 22  1  0
  1 36  1  0
  1 37  1  0
  1 38  1  0
  4 39  1  0
  5 40  1  0
  6 41  1  0
 11 42  1  0
 13 43  1  0
 14 44  1  0
 15 45  1  0
 17 46  1  0
 17 47  1  0
 20 48  1  0
 21 49  1  0
 21 50  1  0
 23 51  1  0
 24 52  1  0
 27 53  1  0
 28 54  1  0
 28 55  1  0
 29 56  1  0
 32 57  1  0
 32 58  1  0
 32 59  1  0
 35 60  1  0
M  END
$$$$
