
     RDKit          3D

 31 33  0  0  0  0  0  0  0  0999 V2000
    4.5559   -1.9957    1.3228 N   0  0  0  0  0  0  0  0  0  0  0  0
    4.5348   -1.0466    0.4462 C   0  0  0  0  0  0  0  0  0  0  0  0
    5.7062   -0.4931    0.0129 N   0  0  0  0  0  0  0  0  0  0  0  0
    3.2236   -0.5546   -0.0716 C   0  0  0  0  0  0  0  0  0  0  0  0
    3.1528    0.1151   -1.3028 C   0  0  0  0  0  0  0  0  0  0  0  0
    1.9342    0.5903   -1.8052 C   0  0  0  0  0  0  0  0  0  0  0  0
    0.8042    0.3594   -1.0195 C   0  0  0  0  0  0  0  0  0  0  0  0
   -0.5203    0.6710   -1.1936 N   0  0  0  0  0  0  0  0  0  0  0  0
   -1.2336    0.2095   -0.1101 C   0  0  0  0  0  0  0  0  0  0  0  0
   -2.6848    0.3514    0.0797 C   0  0  0  0  0  0  0  0  0  0  0  0
   -3.5000    0.9946   -0.8650 C   0  0  0  0  0  0  0  0  0  0  0  0
   -4.8776    1.1116   -0.6494 C   0  0  0  0  0  0  0  0  0  0  0  0
   -5.9511    1.9841   -1.9402 Br  0  0  0  0  0  0  0  0  0  0  0  0
   -5.4691    0.5957    0.5006 C   0  0  0  0  0  0  0  0  0  0  0  0
   -4.6756   -0.0453    1.4477 C   0  0  0  0  0  0  0  0  0  0  0  0
   -3.3022   -0.1640    1.2362 C   0  0  0  0  0  0  0  0  0  0  0  0
   -2.5987   -0.8101    2.2207 O   0  0  0  0  0  0  0  0  0  0  0  0
   -0.4162   -0.3867    0.7447 N   0  0  0  0  0  0  0  0  0  0  0  0
    0.8413   -0.3066    0.1976 C   0  0  0  0  0  0  0  0  0  0  0  0
    2.0645   -0.7808    0.6877 C   0  0  0  0  0  0  0  0  0  0  0  0
    5.5196   -2.2421    1.5519 H   0  0  0  0  0  0  0  0  0  0  0  0
    6.5063   -0.6504    0.6136 H   0  0  0  0  0  0  0  0  0  0  0  0
    5.6500    0.4785   -0.2738 H   0  0  0  0  0  0  0  0  0  0  0  0
    4.0482    0.2511   -1.9047 H   0  0  0  0  0  0  0  0  0  0  0  0
    1.8792    1.1001   -2.7609 H   0  0  0  0  0  0  0  0  0  0  0  0
   -0.9019    1.1580   -1.9892 H   0  0  0  0  0  0  0  0  0  0  0  0
   -3.0829    1.4114   -1.7756 H   0  0  0  0  0  0  0  0  0  0  0  0
   -6.5388    0.6856    0.6693 H   0  0  0  0  0  0  0  0  0  0  0  0
   -5.1199   -0.4546    2.3513 H   0  0  0  0  0  0  0  0  0  0  0  0
   -1.6541   -0.8293    1.9434 H   0  0  0  0  0  0  0  0  0  0  0  0
    2.1063   -1.3077    1.6353 H   0  0  0  0  0  0  0  0  0  0  0  0
  1  2  2  3
  2  3  1  0
  2  4  1  0
  4  5  2  0
  5  6  1  0
  6  7  2  0
  7  8  1  0
  8  9  1  0
  9 10  1  0
 10 11  2  0
 11 12  1  0
 12 13  1  0
 12 14  2  0
 14 15  1  0
 15 16  2  0
 16 17  1  0
  9 18  2  0
 18 19  1  0
 19 20  2  0
 20  4  1  0
 19  7  1  0
 16 10  1  0
  1 21  1  0
  3 22  1  0
  3 23  1  0
  5 24  1  0
  6 25  1  0
  8 26  1  0
 11 27  1  0
 14 28  1  0
 15 29  1  0
 17 30  1  0
 20 31  1  0
M  END
$$$$
