
     RDKit          3D

 62 65  0  0  0  0  0  0  0  0999 V2000
    7.0656    4.1449   -1.8086 N   0  0  0  0  0  0  0  0  0  0  0  0
    5.8698    3.7558   -1.5064 C   0  0  0  0  0  0  0  0  0  0  0  0
    4.8472    4.6604   -1.4984 N   0  0  0  0  0  0  0  0  0  0  0  0
    5.6261    2.3166   -1.1848 C   0  0  0  0  0  0  0  0  0  0  0  0
    6.5960    1.3627   -1.5181 C   0  0  0  0  0  0  0  0  0  0  0  0
    6.3912    0.0135   -1.2250 C   0  0  0  0  0  0  0  0  0  0  0  0
    5.2118   -0.3932   -0.5997 C   0  0  0  0  0  0  0  0  0  0  0  0
    4.2326    0.5528   -0.2674 C   0  0  0  0  0  0  0  0  0  0  0  0
    2.9618    0.1676    0.4082 C   0  0  0  0  0  0  0  0  0  0  0  0
    2.3220    0.9964    1.0466 O   0  0  0  0  0  0  0  0  0  0  0  0
    2.5457   -1.1338    0.2360 N   0  0  0  0  0  0  0  0  0  0  0  0
    1.2143   -1.5341    0.6772 C   0  0  1  0  0  0  0  0  0  0  0  0
    0.1985   -1.1948   -0.4536 C   0  0  0  0  0  0  0  0  0  0  0  0
    0.5614   -1.1753   -1.6372 O   0  0  0  0  0  0  0  0  0  0  0  0
   -1.1255   -0.9553   -0.1026 N   0  0  0  0  0  0  0  0  0  0  0  0
   -2.0834   -0.5833   -1.1475 C   0  0  0  0  0  0  0  0  0  0  0  0
   -3.1230    0.4322   -0.6518 C   0  0  0  0  0  0  0  0  0  0  0  0
   -3.8159   -0.0091    0.5680 N   0  0  0  0  0  0  0  0  0  0  0  0
   -5.1277    0.3272    0.8909 C   0  0  0  0  0  0  0  0  0  0  0  0
   -5.7829   -0.2694    1.7420 O   0  0  0  0  0  0  0  0  0  0  0  0
   -5.7750    1.4528    0.1792 C   0  0  0  0  0  0  0  0  0  0  0  0
   -5.1859    2.7218    0.1561 C   0  0  0  0  0  0  0  0  0  0  0  0
   -5.8263    3.7689   -0.5078 C   0  0  0  0  0  0  0  0  0  0  0  0
   -7.0559    3.5513   -1.1320 C   0  0  0  0  0  0  0  0  0  0  0  0
   -7.6546    2.2911   -1.0861 C   0  0  0  0  0  0  0  0  0  0  0  0
   -7.0188    1.2409   -0.4234 C   0  0  0  0  0  0  0  0  0  0  0  0
   -3.1710   -1.0709    1.3416 C   0  0  0  0  0  0  0  0  0  0  0  0
   -1.6404   -1.0040    1.2722 C   0  0  0  0  0  0  0  0  0  0  0  0
    1.2366   -3.0133    1.0300 C   0  0  0  0  0  0  0  0  0  0  0  0
    1.0824   -4.0179    0.0609 C   0  0  0  0  0  0  0  0  0  0  0  0
    1.1274   -5.3664    0.4210 C   0  0  0  0  0  0  0  0  0  0  0  0
    1.3405   -5.7294    1.7488 C   0  0  0  0  0  0  0  0  0  0  0  0
    1.5165   -4.7455    2.7185 C   0  0  0  0  0  0  0  0  0  0  0  0
    1.4711   -3.3969    2.3616 C   0  0  0  0  0  0  0  0  0  0  0  0
    4.4493    1.9097   -0.5468 C   0  0  0  0  0  0  0  0  0  0  0  0
    7.0725    5.1537   -1.9657 H   0  0  0  0  0  0  0  0  0  0  0  0
    3.9198    4.2929   -1.6824 H   0  0  0  0  0  0  0  0  0  0  0  0
    5.0130    5.5183   -2.0095 H   0  0  0  0  0  0  0  0  0  0  0  0
    7.5204    1.6728   -2.0021 H   0  0  0  0  0  0  0  0  0  0  0  0
    7.1574   -0.7160   -1.4764 H   0  0  0  0  0  0  0  0  0  0  0  0
    5.0872   -1.4441   -0.3530 H   0  0  0  0  0  0  0  0  0  0  0  0
    2.8888   -1.6283   -0.5771 H   0  0  0  0  0  0  0  0  0  0  0  0
    0.9555   -0.9437    1.5629 H   0  0  0  0  0  0  0  0  0  0  0  0
   -2.5828   -1.5092   -1.4577 H   0  0  0  0  0  0  0  0  0  0  0  0
   -1.5643   -0.1792   -2.0227 H   0  0  0  0  0  0  0  0  0  0  0  0
   -2.6182    1.3727   -0.4031 H   0  0  0  0  0  0  0  0  0  0  0  0
   -3.8502    0.6293   -1.4456 H   0  0  0  0  0  0  0  0  0  0  0  0
   -4.2435    2.9019    0.6661 H   0  0  0  0  0  0  0  0  0  0  0  0
   -5.3743    4.7575   -0.5289 H   0  0  0  0  0  0  0  0  0  0  0  0
   -7.5567    4.3701   -1.6436 H   0  0  0  0  0  0  0  0  0  0  0  0
   -8.6206    2.1297   -1.5582 H   0  0  0  0  0  0  0  0  0  0  0  0
   -7.4907    0.2624   -0.3720 H   0  0  0  0  0  0  0  0  0  0  0  0
   -3.5005   -1.0219    2.3854 H   0  0  0  0  0  0  0  0  0  0  0  0
   -3.5242   -2.0240    0.9288 H   0  0  0  0  0  0  0  0  0  0  0  0
   -1.2867   -0.0937    1.7708 H   0  0  0  0  0  0  0  0  0  0  0  0
   -1.2138   -1.8632    1.7957 H   0  0  0  0  0  0  0  0  0  0  0  0
    0.9272   -3.7652   -0.9868 H   0  0  0  0  0  0  0  0  0  0  0  0
    1.0004   -6.1347   -0.3378 H   0  0  0  0  0  0  0  0  0  0  0  0
    1.3777   -6.7797    2.0264 H   0  0  0  0  0  0  0  0  0  0  0  0
    1.6955   -5.0280    3.7529 H   0  0  0  0  0  0  0  0  0  0  0  0
    1.6268   -2.6423    3.1308 H   0  0  0  0  0  0  0  0  0  0  0  0
    3.7022    2.6376   -0.2429 H   0  0  0  0  0  0  0  0  0  0  0  0
  1  2  2  3
  2  3  1  0
  2  4  1  0
  4  5  2  0
  5  6  1  0
  6  7  2  0
  7  8  1  0
  8  9  1  0
  9 10  2  0
  9 11  1  0
 11 12  1  0
 12 13  1  0
 13 14  2  0
 13 15  1  0
 15 16  1  0
 16 17  1  0
 17 18  1  0
 18 19  1  0
 19 20  2  0
 19 21  1  0
 21 22  2  0
 22 23  1  0
 23 24  2  0
 24 25  1  0
 25 26  2  0
 18 27  1  0
 27 28  1  0
 12 29  1  0
 29 30  2  0
 30 31  1  0
 31 32  2  0
 32 33  1  0
 33 34  2  0
  8 35  2  0
 35  4  1  0
 28 15  1  0
 34 29  1  0
 26 21  1  0
  1 36  1  0
  3 37  1  0
  3 38  1  0
  5 39  1  0
  6 40  1  0
  7 41  1  0
 11 42  1  0
 12 43  1  1
 16 44  1  0
 16 45  1  0
 17 46  1  0
 17 47  1  0
 22 48  1  0
 23 49  1  0
 24 50  1  0
 25 51  1  0
 26 52  1  0
 27 53  1  0
 27 54  1  0
 28 55  1  0
 28 56  1  0
 30 57  1  0
 31 58  1  0
 32 59  1  0
 33 60  1  0
 34 61  1  0
 35 62  1  0
M  END
$$$$
