
     RDKit          3D

 54 56  0  0  0  0  0  0  0  0999 V2000
    8.8056    1.5859    0.5315 N   0  0  0  0  0  0  0  0  0  0  0  0
    8.4963    0.7126   -0.3697 C   0  0  0  0  0  0  0  0  0  0  0  0
    9.4804    0.0104   -1.0056 N   0  0  0  0  0  0  0  0  0  0  0  0
    7.0594    0.4712   -0.6949 C   0  0  0  0  0  0  0  0  0  0  0  0
    6.6895   -0.0969   -1.9186 C   0  0  0  0  0  0  0  0  0  0  0  0
    5.3405   -0.3126   -2.2097 C   0  0  0  0  0  0  0  0  0  0  0  0
    4.3631    0.0377   -1.2753 C   0  0  0  0  0  0  0  0  0  0  0  0
    3.0423   -0.1519   -1.5844 O   0  0  0  0  0  0  0  0  0  0  0  0
    4.7160    0.6012   -0.0389 C   0  0  0  0  0  0  0  0  0  0  0  0
    3.7374    1.0072    0.9797 C   0  0  0  0  0  0  0  0  0  0  0  0
    2.8060    0.1762    1.4741 C   0  0  0  0  0  0  0  0  0  0  0  0
    1.8030    0.5614    2.5119 C   0  0  0  0  0  0  0  0  0  0  0  0
    0.5070    0.5493    1.8786 N   0  0  0  0  0  0  0  0  0  0  0  0
   -0.4103   -0.4506    2.1130 C   0  0  0  0  0  0  0  0  0  0  0  0
   -0.2424   -1.3578    2.9202 O   0  0  0  0  0  0  0  0  0  0  0  0
   -1.6560   -0.4091    1.2965 C   0  0  0  0  0  0  0  0  0  0  0  0
   -2.3360   -1.6094    1.0618 C   0  0  0  0  0  0  0  0  0  0  0  0
   -3.5166   -1.6166    0.3136 C   0  0  0  0  0  0  0  0  0  0  0  0
   -4.0492   -0.4239   -0.1996 C   0  0  0  0  0  0  0  0  0  0  0  0
   -5.2892   -0.4394   -0.9871 C   0  0  0  0  0  0  0  0  0  0  0  0
   -5.2048   -0.8200   -2.3419 C   0  0  0  0  0  0  0  0  0  0  0  0
   -6.3361   -0.8674   -3.1600 C   0  0  0  0  0  0  0  0  0  0  0  0
   -7.5827   -0.5352   -2.6421 C   0  0  0  0  0  0  0  0  0  0  0  0
   -7.6983   -0.1559   -1.3062 C   0  0  0  0  0  0  0  0  0  0  0  0
   -6.5618   -0.1083   -0.4801 C   0  0  0  0  0  0  0  0  0  0  0  0
   -6.8021    0.3883    1.2074 S   0  0  0  0  0  0  0  0  0  0  0  0
   -6.2010   -0.9027    2.0934 N   0  0  0  0  0  0  0  0  0  0  0  0
   -8.2200    0.3931    1.4955 O   0  0  0  0  0  0  0  0  0  0  0  0
   -5.9718    1.5341    1.4921 O   0  0  0  0  0  0  0  0  0  0  0  0
   -3.3587    0.7736    0.0398 C   0  0  0  0  0  0  0  0  0  0  0  0
   -2.1772    0.7861    0.7897 C   0  0  0  0  0  0  0  0  0  0  0  0
    6.0725    0.8286    0.2331 C   0  0  0  0  0  0  0  0  0  0  0  0
    9.8206    1.6585    0.6148 H   0  0  0  0  0  0  0  0  0  0  0  0
    9.2193   -0.9176   -1.3225 H   0  0  0  0  0  0  0  0  0  0  0  0
   10.3758   -0.0048   -0.5325 H   0  0  0  0  0  0  0  0  0  0  0  0
    7.4376   -0.3451   -2.6657 H   0  0  0  0  0  0  0  0  0  0  0  0
    5.0705   -0.7392   -3.1709 H   0  0  0  0  0  0  0  0  0  0  0  0
    2.9759   -0.5501   -2.4664 H   0  0  0  0  0  0  0  0  0  0  0  0
    3.8228    2.0299    1.3374 H   0  0  0  0  0  0  0  0  0  0  0  0
    2.7518   -0.8518    1.1208 H   0  0  0  0  0  0  0  0  0  0  0  0
    1.8423   -0.1308    3.3582 H   0  0  0  0  0  0  0  0  0  0  0  0
    1.9727    1.5766    2.8846 H   0  0  0  0  0  0  0  0  0  0  0  0
    0.4019    1.1370    1.0637 H   0  0  0  0  0  0  0  0  0  0  0  0
   -1.9470   -2.5441    1.4618 H   0  0  0  0  0  0  0  0  0  0  0  0
   -4.0300   -2.5618    0.1449 H   0  0  0  0  0  0  0  0  0  0  0  0
   -4.2384   -1.0831   -2.7712 H   0  0  0  0  0  0  0  0  0  0  0  0
   -6.2403   -1.1634   -4.2019 H   0  0  0  0  0  0  0  0  0  0  0  0
   -8.4649   -0.5701   -3.2768 H   0  0  0  0  0  0  0  0  0  0  0  0
   -8.6812    0.1033   -0.9162 H   0  0  0  0  0  0  0  0  0  0  0  0
   -6.9395   -1.3017    2.6724 H   0  0  0  0  0  0  0  0  0  0  0  0
   -5.3702   -0.6154    2.6132 H   0  0  0  0  0  0  0  0  0  0  0  0
   -3.7547    1.7159   -0.3373 H   0  0  0  0  0  0  0  0  0  0  0  0
   -1.7005    1.7408    0.9923 H   0  0  0  0  0  0  0  0  0  0  0  0
    6.3706    1.2771    1.1794 H   0  0  0  0  0  0  0  0  0  0  0  0
  1  2  2  3
  2  3  1  0
  2  4  1  0
  4  5  2  0
  5  6  1  0
  6  7  2  0
  7  8  1  0
  7  9  1  0
  9 10  1  0
 10 11  2  0
 11 12  1  0
 12 13  1  0
 13 14  1  0
 14 15  2  0
 14 16  1  0
 16 17  2  0
 17 18  1  0
 18 19  2  0
 19 20  1  0
 20 21  2  0
 21 22  1  0
 22 23  2  0
 23 24  1  0
 24 25  2  0
 25 26  1  0
 26 27  1  0
 26 28  2  0
 26 29  2  0
 19 30  1  0
 30 31  2  0
  9 32  2  0
 32  4  1  0
 31 16  1  0
 25 20  1  0
  1 33  1  0
  3 34  1  0
  3 35  1  0
  5 36  1  0
  6 37  1  0
  8 38  1  0
 10 39  1  0
 11 40  1  0
 12 41  1  0
 12 42  1  0
 13 43  1  0
 17 44  1  0
 18 45  1  0
 21 46  1  0
 22 47  1  0
 23 48  1  0
 24 49  1  0
 27 50  1  0
 27 51  1  0
 30 52  1  0
 31 53  1  0
 32 54  1  0
M  END
$$$$
