
     RDKit          3D

 71 73  0  0  0  0  0  0  0  0999 V2000
    9.2291    1.4505    0.7340 N   0  0  0  0  0  0  0  0  0  0  0  0
    8.7276    0.2563    0.7462 C   0  0  0  0  0  0  0  0  0  0  0  0
    9.6008   -0.7854    0.7536 N   0  0  0  0  0  0  0  0  0  0  0  0
    7.2611    0.0199    0.7498 C   0  0  0  0  0  0  0  0  0  0  0  0
    6.4384    0.7900    1.5773 C   0  0  0  0  0  0  0  0  0  0  0  0
    5.0551    0.5752    1.5910 C   0  0  0  0  0  0  0  0  0  0  0  0
    4.4898   -0.4081    0.7788 C   0  0  0  0  0  0  0  0  0  0  0  0
    3.1631   -0.7186    0.6825 O   0  0  0  0  0  0  0  0  0  0  0  0
    2.2341   -0.0729    1.5503 C   0  0  0  0  0  0  0  0  0  0  0  0
    1.7381    1.2658    0.9990 C   0  0  0  0  0  0  0  0  0  0  0  0
    0.8586    1.1959   -0.2712 C   0  0  1  0  0  0  0  0  0  0  0  0
    1.6840    0.9581   -1.5531 C   0  0  0  0  0  0  0  0  0  0  0  0
    0.7645    0.6815   -2.7395 C   0  0  0  0  0  0  0  0  0  0  0  0
   -0.1512   -0.5195   -2.4817 C   0  0  0  0  0  0  0  0  0  0  0  0
   -0.2022   -0.9251   -1.0082 C   0  0  0  0  0  0  0  0  0  0  0  0
   -0.2765    0.2586   -0.1534 N   0  0  0  0  0  0  0  0  0  0  0  0
   -1.3282    0.5967    0.6904 C   0  0  0  0  0  0  0  0  0  0  0  0
   -1.2896    1.6351    1.3643 O   0  0  0  0  0  0  0  0  0  0  0  0
   -2.5897   -0.3012    0.8151 C   0  0  1  0  0  0  0  0  0  0  0  0
   -3.4572   -0.3201   -0.4609 C   0  0  0  0  0  0  0  0  0  0  0  0
   -3.7873    1.0731   -1.0530 C   0  0  0  0  0  0  0  0  0  0  0  0
   -4.5415    0.9336   -2.3898 C   0  0  0  0  0  0  0  0  0  0  0  0
   -5.9887    0.4743   -2.2177 C   0  0  0  0  0  0  0  0  0  0  0  0
   -6.7535    1.3665   -1.2449 C   0  0  0  0  0  0  0  0  0  0  0  0
   -6.0298    1.5106    0.0905 C   0  0  0  0  0  0  0  0  0  0  0  0
   -4.5881    1.9772   -0.1006 C   0  0  0  0  0  0  0  0  0  0  0  0
   -2.1923   -1.6459    1.2972 N   0  0  0  0  0  0  0  0  0  0  0  0
   -3.3450   -2.4624    1.7196 C   0  0  0  0  0  0  0  0  0  0  0  0
   -2.8682   -3.6438    2.5551 C   0  0  0  0  0  0  0  0  0  0  0  0
   -1.8031   -3.7438    3.1448 O   0  0  0  0  0  0  0  0  0  0  0  0
   -3.7948   -4.6194    2.6481 O   0  0  0  0  0  0  0  0  0  0  0  0
    5.3203   -1.1714   -0.0488 C   0  0  0  0  0  0  0  0  0  0  0  0
    6.7021   -0.9651   -0.0654 C   0  0  0  0  0  0  0  0  0  0  0  0
    8.4893    2.1585    0.7016 H   0  0  0  0  0  0  0  0  0  0  0  0
    9.3125   -1.6807    0.3861 H   0  0  0  0  0  0  0  0  0  0  0  0
   10.5462   -0.5077    0.5129 H   0  0  0  0  0  0  0  0  0  0  0  0
    6.8684    1.5442    2.2322 H   0  0  0  0  0  0  0  0  0  0  0  0
    4.4538    1.1954    2.2472 H   0  0  0  0  0  0  0  0  0  0  0  0
    2.6464    0.0435    2.5596 H   0  0  0  0  0  0  0  0  0  0  0  0
    1.3887   -0.7588    1.6733 H   0  0  0  0  0  0  0  0  0  0  0  0
    2.5882    1.9255    0.7898 H   0  0  0  0  0  0  0  0  0  0  0  0
    1.1661    1.7512    1.7984 H   0  0  0  0  0  0  0  0  0  0  0  0
    0.4082    2.1930   -0.3843 H   0  0  0  0  0  0  0  0  0  0  0  0
    2.3090    1.8349   -1.7594 H   0  0  0  0  0  0  0  0  0  0  0  0
    2.3640    0.1086   -1.4453 H   0  0  0  0  0  0  0  0  0  0  0  0
    1.3555    0.5116   -3.6466 H   0  0  0  0  0  0  0  0  0  0  0  0
    0.1487    1.5692   -2.9317 H   0  0  0  0  0  0  0  0  0  0  0  0
   -1.1586   -0.2713   -2.8369 H   0  0  0  0  0  0  0  0  0  0  0  0
    0.1823   -1.3785   -3.0757 H   0  0  0  0  0  0  0  0  0  0  0  0
    0.7090   -1.4700   -0.7341 H   0  0  0  0  0  0  0  0  0  0  0  0
   -1.0224   -1.6216   -0.8527 H   0  0  0  0  0  0  0  0  0  0  0  0
   -3.1820    0.1548    1.6201 H   0  0  0  0  0  0  0  0  0  0  0  0
   -4.3925   -0.8459   -0.2384 H   0  0  0  0  0  0  0  0  0  0  0  0
   -2.9723   -0.9147   -1.2412 H   0  0  0  0  0  0  0  0  0  0  0  0
   -2.8380    1.5763   -1.2765 H   0  0  0  0  0  0  0  0  0  0  0  0
   -4.0122    0.2409   -3.0548 H   0  0  0  0  0  0  0  0  0  0  0  0
   -4.5414    1.9077   -2.8962 H   0  0  0  0  0  0  0  0  0  0  0  0
   -6.0133   -0.5623   -1.8626 H   0  0  0  0  0  0  0  0  0  0  0  0
   -6.4917    0.4819   -3.1916 H   0  0  0  0  0  0  0  0  0  0  0  0
   -7.7567    0.9578   -1.0794 H   0  0  0  0  0  0  0  0  0  0  0  0
   -6.8854    2.3592   -1.6932 H   0  0  0  0  0  0  0  0  0  0  0  0
   -6.0473    0.5546    0.6262 H   0  0  0  0  0  0  0  0  0  0  0  0
   -6.5660    2.2314    0.7184 H   0  0  0  0  0  0  0  0  0  0  0  0
   -4.6041    2.9933   -0.5171 H   0  0  0  0  0  0  0  0  0  0  0  0
   -4.0965    2.0618    0.8733 H   0  0  0  0  0  0  0  0  0  0  0  0
   -1.5746   -1.5308    2.1077 H   0  0  0  0  0  0  0  0  0  0  0  0
   -3.8607   -2.8525    0.8367 H   0  0  0  0  0  0  0  0  0  0  0  0
   -4.0390   -1.8864    2.3409 H   0  0  0  0  0  0  0  0  0  0  0  0
   -3.3647   -5.2968    3.2117 H   0  0  0  0  0  0  0  0  0  0  0  0
    4.8829   -1.9343   -0.6891 H   0  0  0  0  0  0  0  0  0  0  0  0
    7.3202   -1.5593   -0.7308 H   0  0  0  0  0  0  0  0  0  0  0  0
  1  2  2  3
  2  3  1  0
  2  4  1  0
  4  5  2  0
  5  6  1  0
  6  7  2  0
  7  8  1  0
  8  9  1  0
  9 10  1  0
 10 11  1  0
 11 12  1  0
 12 13  1  0
 13 14  1  0
 14 15  1  0
 15 16  1  0
 16 17  1  0
 17 18  2  0
 17 19  1  0
 19 20  1  0
 20 21  1  0
 21 22  1  0
 22 23  1  0
 23 24  1  0
 24 25  1  0
 25 26  1  0
 19 27  1  0
 27 28  1  0
 28 29  1  0
 29 30  2  0
 29 31  1  0
  7 32  1  0
 32 33  2  0
 33  4  1  0
 16 11  1  0
 26 21  1  0
  1 34  1  0
  3 35  1  0
  3 36  1  0
  5 37  1  0
  6 38  1  0
  9 39  1  0
  9 40  1  0
 10 41  1  0
 10 42  1  0
 11 43  1  6
 12 44  1  0
 12 45  1  0
 13 46  1  0
 13 47  1  0
 14 48  1  0
 14 49  1  0
 15 50  1  0
 15 51  1  0
 19 52  1  1
 20 53  1  0
 20 54  1  0
 21 55  1  0
 22 56  1  0
 22 57  1  0
 23 58  1  0
 23 59  1  0
 24 60  1  0
 24 61  1  0
 25 62  1  0
 25 63  1  0
 26 64  1  0
 26 65  1  0
 27 66  1  0
 28 67  1  0
 28 68  1  0
 31 69  1  0
 32 70  1  0
 33 71  1  0
M  END
$$$$
