
     RDKit          3D

 40 42  0  0  0  0  0  0  0  0999 V2000
   -7.4583   -0.8797    0.1353 C   0  0  0  0  0  0  0  0  0  0  0  0
   -6.9928    0.2782    0.7556 C   0  0  0  0  0  0  0  0  0  0  0  0
   -5.6843    0.7114    0.5354 C   0  0  0  0  0  0  0  0  0  0  0  0
   -4.8314   -0.0059   -0.3156 C   0  0  0  0  0  0  0  0  0  0  0  0
   -3.4129    0.4556   -0.5422 C   0  0  0  0  0  0  0  0  0  0  0  0
   -2.5987   -0.0894    0.4925 O   0  0  0  0  0  0  0  0  0  0  0  0
   -1.2680    0.2230    0.4681 C   0  0  0  0  0  0  0  0  0  0  0  0
   -0.5210   -0.3366    1.5073 C   0  0  0  0  0  0  0  0  0  0  0  0
    0.8527   -0.1027    1.6078 C   0  0  0  0  0  0  0  0  0  0  0  0
    1.5016    0.7043    0.6663 C   0  0  0  0  0  0  0  0  0  0  0  0
    2.9885    0.9574    0.7545 C   0  0  0  0  0  0  0  0  0  0  0  0
    3.6611    0.2337   -0.3163 N   0  0  0  0  0  0  0  0  0  0  0  0
    5.0579    0.2017   -0.3625 C   0  0  0  0  0  0  0  0  0  0  0  0
    5.6794   -0.7581   -1.1659 C   0  0  0  0  0  0  0  0  0  0  0  0
    7.0622   -0.7632   -1.2771 C   0  0  0  0  0  0  0  0  0  0  0  0
    7.8666    0.1285   -0.6666 N   0  0  0  0  0  0  0  0  0  0  0  0
    7.2520    1.0764    0.0684 C   0  0  0  0  0  0  0  0  0  0  0  0
    5.8759    1.1596    0.2362 C   0  0  0  0  0  0  0  0  0  0  0  0
    0.7493    1.2582   -0.3796 C   0  0  0  0  0  0  0  0  0  0  0  0
   -0.6264    1.0215   -0.4779 C   0  0  0  0  0  0  0  0  0  0  0  0
   -5.3057   -1.1776   -0.9221 C   0  0  0  0  0  0  0  0  0  0  0  0
   -6.6147   -1.6091   -0.7006 C   0  0  0  0  0  0  0  0  0  0  0  0
   -8.4761   -1.2184    0.3099 H   0  0  0  0  0  0  0  0  0  0  0  0
   -7.6469    0.8411    1.4163 H   0  0  0  0  0  0  0  0  0  0  0  0
   -5.3292    1.6091    1.0367 H   0  0  0  0  0  0  0  0  0  0  0  0
   -3.0705    0.1102   -1.5259 H   0  0  0  0  0  0  0  0  0  0  0  0
   -3.3837    1.5525   -0.5224 H   0  0  0  0  0  0  0  0  0  0  0  0
   -1.0159   -0.9635    2.2458 H   0  0  0  0  0  0  0  0  0  0  0  0
    1.4074   -0.5571    2.4256 H   0  0  0  0  0  0  0  0  0  0  0  0
    3.1622    2.0371    0.6701 H   0  0  0  0  0  0  0  0  0  0  0  0
    3.3637    0.6333    1.7333 H   0  0  0  0  0  0  0  0  0  0  0  0
    3.2477   -0.6824   -0.4771 H   0  0  0  0  0  0  0  0  0  0  0  0
    5.0987   -1.4981   -1.7055 H   0  0  0  0  0  0  0  0  0  0  0  0
    7.5697   -1.5056   -1.8860 H   0  0  0  0  0  0  0  0  0  0  0  0
    7.9137    1.8023    0.5323 H   0  0  0  0  0  0  0  0  0  0  0  0
    5.4740    1.9732    0.8268 H   0  0  0  0  0  0  0  0  0  0  0  0
    1.2407    1.8738   -1.1316 H   0  0  0  0  0  0  0  0  0  0  0  0
   -1.1598    1.4735   -1.3072 H   0  0  0  0  0  0  0  0  0  0  0  0
   -4.6544   -1.7642   -1.5662 H   0  0  0  0  0  0  0  0  0  0  0  0
   -6.9741   -2.5181   -1.1757 H   0  0  0  0  0  0  0  0  0  0  0  0
  1  2  2  0
  2  3  1  0
  3  4  2  0
  4  5  1  0
  5  6  1  0
  6  7  1  0
  7  8  2  0
  8  9  1  0
  9 10  2  0
 10 11  1  0
 11 12  1  0
 12 13  1  0
 13 14  2  0
 14 15  1  0
 15 16  2  0
 16 17  1  0
 17 18  2  0
 10 19  1  0
 19 20  2  0
  4 21  1  0
 21 22  2  0
 22  1  1  0
 20  7  1  0
 18 13  1  0
  1 23  1  0
  2 24  1  0
  3 25  1  0
  5 26  1  0
  5 27  1  0
  8 28  1  0
  9 29  1  0
 11 30  1  0
 11 31  1  0
 12 32  1  0
 14 33  1  0
 15 34  1  0
 17 35  1  0
 18 36  1  0
 19 37  1  0
 20 38  1  0
 21 39  1  0
 22 40  1  0
M  END
$$$$
