
     RDKit          3D

 63 68  0  0  0  0  0  0  0  0999 V2000
   -1.0322   -0.5091    0.8961 O   0  0  0  0  0  0  0  0  0  0  0  0
   -0.9858    0.6815    0.6021 C   0  0  0  0  0  0  0  0  0  0  0  0
   -2.1595    1.4885    0.3635 C   0  0  0  0  0  0  0  0  0  0  0  0
   -2.1644    2.8691    0.3630 C   0  0  0  0  0  0  0  0  0  0  0  0
   -3.5231    3.2551    0.3550 C   0  0  0  0  0  0  0  0  0  0  0  0
   -4.0615    4.6620    0.4072 C   0  0  0  0  0  0  0  0  0  0  0  0
   -3.8860    5.3049   -0.7793 F   0  0  0  0  0  0  0  0  0  0  0  0
   -3.4114    5.4085    1.3430 F   0  0  0  0  0  0  0  0  0  0  0  0
   -5.3847    4.7334    0.7041 F   0  0  0  0  0  0  0  0  0  0  0  0
   -4.3135    2.1645    0.3237 N   0  0  0  0  0  0  0  0  0  0  0  0
   -3.4674    1.1004    0.1694 N   0  0  0  0  0  0  0  0  0  0  0  0
   -4.0105   -0.1563   -0.1921 C   0  0  0  0  0  0  0  0  0  0  0  0
   -5.3263   -0.4708    0.1849 C   0  0  0  0  0  0  0  0  0  0  0  0
   -5.8958   -1.7091   -0.1590 C   0  0  0  0  0  0  0  0  0  0  0  0
   -7.2006   -2.0472    0.2332 C   0  0  0  0  0  0  0  0  0  0  0  0
   -7.7524   -3.2817   -0.1129 C   0  0  0  0  0  0  0  0  0  0  0  0
   -7.0082   -4.1933   -0.8559 C   0  0  0  0  0  0  0  0  0  0  0  0
   -5.7103   -3.8727   -1.2564 C   0  0  0  0  0  0  0  0  0  0  0  0
   -5.1404   -2.6357   -0.9153 C   0  0  0  0  0  0  0  0  0  0  0  0
   -3.8434   -2.2922   -1.3220 C   0  0  0  0  0  0  0  0  0  0  0  0
   -3.2938   -1.0601   -0.9721 C   0  0  0  0  0  0  0  0  0  0  0  0
   -2.1057   -0.7364   -1.5040 F   0  0  0  0  0  0  0  0  0  0  0  0
   -0.9061    3.6460    0.4494 C   0  0  0  0  0  0  0  0  0  0  0  0
    0.2542    2.7567   -0.0396 C   0  0  0  0  0  0  0  0  0  0  0  0
    0.2341    1.4022    0.5573 N   0  0  0  0  0  0  0  0  0  0  0  0
    1.4787    0.6129    0.6035 C   0  0  0  0  0  0  0  0  0  0  0  0
    2.6311    1.3109    1.3365 C   0  0  0  0  0  0  0  0  0  0  0  0
    3.8629    0.4064    1.3742 C   0  0  0  0  0  0  0  0  0  0  0  0
    4.2432    0.0114    0.0166 N   0  0  0  0  0  0  0  0  0  0  0  0
    5.5057   -0.6316   -0.0716 N   0  0  0  0  0  0  0  0  0  0  0  0
    5.7777   -1.8296    0.7219 C   0  0  0  0  0  0  0  0  0  0  0  0
    6.9511   -2.6102    0.1477 C   0  0  0  0  0  0  0  0  0  0  0  0
    8.1065   -1.7727    0.1533 O   0  0  0  0  0  0  0  0  0  0  0  0
    7.9092   -0.6419   -0.6854 C   0  0  0  0  0  0  0  0  0  0  0  0
    6.5589    0.1012   -0.6407 C   0  0  0  0  0  0  0  0  0  0  0  0
    6.4420    1.2221   -1.1397 O   0  0  0  0  0  0  0  0  0  0  0  0
    3.1857   -0.6909   -0.7123 C   0  0  0  0  0  0  0  0  0  0  0  0
    1.9238    0.1667   -0.7947 C   0  0  0  0  0  0  0  0  0  0  0  0
   -5.9085    0.2411    0.7693 H   0  0  0  0  0  0  0  0  0  0  0  0
   -7.7991   -1.3483    0.8140 H   0  0  0  0  0  0  0  0  0  0  0  0
   -8.7639   -3.5300    0.1984 H   0  0  0  0  0  0  0  0  0  0  0  0
   -7.4380   -5.1546   -1.1258 H   0  0  0  0  0  0  0  0  0  0  0  0
   -5.1461   -4.5979   -1.8389 H   0  0  0  0  0  0  0  0  0  0  0  0
   -3.2519   -2.9676   -1.9336 H   0  0  0  0  0  0  0  0  0  0  0  0
   -0.9589    4.5584   -0.1535 H   0  0  0  0  0  0  0  0  0  0  0  0
   -0.7353    3.9363    1.4929 H   0  0  0  0  0  0  0  0  0  0  0  0
    0.1946    2.6275   -1.1276 H   0  0  0  0  0  0  0  0  0  0  0  0
    1.1947    3.2600    0.1929 H   0  0  0  0  0  0  0  0  0  0  0  0
    1.2608   -0.2975    1.1780 H   0  0  0  0  0  0  0  0  0  0  0  0
    2.9059    2.2497    0.8428 H   0  0  0  0  0  0  0  0  0  0  0  0
    2.3263    1.5670    2.3581 H   0  0  0  0  0  0  0  0  0  0  0  0
    3.6589   -0.4730    1.9979 H   0  0  0  0  0  0  0  0  0  0  0  0
    4.6832    0.9592    1.8482 H   0  0  0  0  0  0  0  0  0  0  0  0
    6.0218   -1.4922    1.7360 H   0  0  0  0  0  0  0  0  0  0  0  0
    4.8864   -2.4627    0.7573 H   0  0  0  0  0  0  0  0  0  0  0  0
    7.1650   -3.4840    0.7707 H   0  0  0  0  0  0  0  0  0  0  0  0
    6.7518   -2.9581   -0.8728 H   0  0  0  0  0  0  0  0  0  0  0  0
    8.6898    0.0826   -0.4307 H   0  0  0  0  0  0  0  0  0  0  0  0
    8.0713   -0.9555   -1.7234 H   0  0  0  0  0  0  0  0  0  0  0  0
    3.5191   -0.9140   -1.7332 H   0  0  0  0  0  0  0  0  0  0  0  0
    2.9481   -1.6486   -0.2330 H   0  0  0  0  0  0  0  0  0  0  0  0
    1.1253   -0.4033   -1.2848 H   0  0  0  0  0  0  0  0  0  0  0  0
    2.1174    1.0423   -1.4277 H   0  0  0  0  0  0  0  0  0  0  0  0
  1  2  2  0
  2  3  1  0
  3  4  2  0
  4  5  1  0
  5  6  1  0
  6  7  1  0
  6  8  1  0
  6  9  1  0
  5 10  2  0
 10 11  1  0
 11 12  1  0
 12 13  2  0
 13 14  1  0
 14 15  2  0
 15 16  1  0
 16 17  2  0
 17 18  1  0
 18 19  2  0
 19 20  1  0
 20 21  2  0
 21 22  1  0
  4 23  1  0
 23 24  1  0
 24 25  1  0
 25 26  1  0
 26 27  1  0
 27 28  1  0
 28 29  1  0
 29 30  1  0
 30 31  1  0
 31 32  1  0
 32 33  1  0
 33 34  1  0
 34 35  1  0
 35 36  2  0
 29 37  1  0
 37 38  1  0
 25  2  1  0
 38 26  1  0
 11  3  1  0
 21 12  1  0
 35 30  1  0
 19 14  1  0
 13 39  1  0
 15 40  1  0
 16 41  1  0
 17 42  1  0
 18 43  1  0
 20 44  1  0
 23 45  1  0
 23 46  1  0
 24 47  1  0
 24 48  1  0
 26 49  1  0
 27 50  1  0
 27 51  1  0
 28 52  1  0
 28 53  1  0
 31 54  1  0
 31 55  1  0
 32 56  1  0
 32 57  1  0
 34 58  1  0
 34 59  1  0
 37 60  1  0
 37 61  1  0
 38 62  1  0
 38 63  1  0
M  END
$$$$
