
     RDKit          3D

 73 77  0  0  0  0  0  0  0  0999 V2000
   -1.0610    5.1392    1.7707 C   0  0  0  0  0  0  0  0  0  0  0  0
   -1.3360    4.0130    0.7839 C   0  0  0  0  0  0  0  0  0  0  0  0
   -2.4297    3.0380    1.2597 C   0  0  0  0  0  0  0  0  0  0  0  0
   -2.0455    2.3552    2.5873 C   0  0  0  0  0  0  0  0  0  0  0  0
   -2.6156    0.9452    2.6933 C   0  0  0  0  0  0  0  0  0  0  0  0
   -2.1052    0.0969    1.6142 N   0  0  0  0  0  0  0  0  0  0  0  0
   -1.5929   -1.1543    1.9299 C   0  0  0  0  0  0  0  0  0  0  0  0
   -1.6206   -1.6029    3.0823 O   0  0  0  0  0  0  0  0  0  0  0  0
   -0.9936   -2.0169    0.7998 C   0  0  0  0  0  0  0  0  0  0  0  0
   -2.1187   -2.8607    0.1961 C   0  0  0  0  0  0  0  0  0  0  0  0
   -1.7062   -3.5635   -1.0621 C   0  0  0  0  0  0  0  0  0  0  0  0
   -1.5565   -4.8656   -1.1593 N   0  0  0  0  0  0  0  0  0  0  0  0
   -1.1663   -5.2044   -2.4440 C   0  0  0  0  0  0  0  0  0  0  0  0
   -0.8833   -6.5056   -2.9061 C   0  0  0  0  0  0  0  0  0  0  0  0
   -0.5046   -6.7049   -4.2378 C   0  0  0  0  0  0  0  0  0  0  0  0
   -0.4071   -5.6262   -5.1110 C   0  0  0  0  0  0  0  0  0  0  0  0
   -0.6834   -4.3255   -4.6777 C   0  0  0  0  0  0  0  0  0  0  0  0
   -1.0612   -4.1374   -3.3376 C   0  0  0  0  0  0  0  0  0  0  0  0
   -1.4625   -2.6791   -2.5161 S   0  0  0  0  0  0  0  0  0  0  0  0
    0.0176   -2.8836    1.4532 N   0  0  0  0  0  0  0  0  0  0  0  0
    1.6417   -2.5737    1.2126 S   0  0  0  0  0  0  0  0  0  0  0  0
    1.9206   -2.7624   -0.1963 O   0  0  0  0  0  0  0  0  0  0  0  0
    2.3592   -3.3224    2.2215 O   0  0  0  0  0  0  0  0  0  0  0  0
    1.8193   -0.8422    1.6001 C   0  0  0  0  0  0  0  0  0  0  0  0
    1.7263   -0.4950    2.9579 C   0  0  0  0  0  0  0  0  0  0  0  0
    1.9116    0.8239    3.3542 C   0  0  0  0  0  0  0  0  0  0  0  0
    2.2105    1.7925    2.4015 C   0  0  0  0  0  0  0  0  0  0  0  0
    2.3135    1.4561    1.0398 C   0  0  0  0  0  0  0  0  0  0  0  0
    2.1277    0.1219    0.6170 C   0  0  0  0  0  0  0  0  0  0  0  0
    2.1018   -0.1601   -0.7608 N   0  0  0  0  0  0  0  0  0  0  0  0
    2.9476    0.6859   -1.5950 C   0  0  0  0  0  0  0  0  0  0  0  0
    2.5817    2.1671   -1.4227 C   0  0  0  0  0  0  0  0  0  0  0  0
    1.1539    2.4416   -1.9314 C   0  0  0  0  0  0  0  0  0  0  0  0
    3.5518    3.0271   -2.2544 C   0  0  0  0  0  0  0  0  0  0  0  0
    2.7168    2.5440    0.0673 C   0  0  0  0  0  0  0  0  0  0  0  0
   -1.9490    0.7260    0.3032 C   0  0  0  0  0  0  0  0  0  0  0  0
   -2.7640    2.0067    0.1639 C   0  0  0  0  0  0  0  0  0  0  0  0
   -0.6500    4.7597    2.7110 H   0  0  0  0  0  0  0  0  0  0  0  0
   -0.3315    5.8375    1.3482 H   0  0  0  0  0  0  0  0  0  0  0  0
   -1.9758    5.6974    1.9933 H   0  0  0  0  0  0  0  0  0  0  0  0
   -1.6395    4.4607   -0.1704 H   0  0  0  0  0  0  0  0  0  0  0  0
   -0.4047    3.4679    0.5948 H   0  0  0  0  0  0  0  0  0  0  0  0
   -3.3413    3.6274    1.4293 H   0  0  0  0  0  0  0  0  0  0  0  0
   -2.4002    2.9630    3.4279 H   0  0  0  0  0  0  0  0  0  0  0  0
   -0.9541    2.2944    2.6799 H   0  0  0  0  0  0  0  0  0  0  0  0
   -3.7085    0.9621    2.6089 H   0  0  0  0  0  0  0  0  0  0  0  0
   -2.3727    0.5244    3.6739 H   0  0  0  0  0  0  0  0  0  0  0  0
   -0.5170   -1.3911    0.0432 H   0  0  0  0  0  0  0  0  0  0  0  0
   -2.9967   -2.2381   -0.0193 H   0  0  0  0  0  0  0  0  0  0  0  0
   -2.4584   -3.6104    0.9237 H   0  0  0  0  0  0  0  0  0  0  0  0
   -0.9588   -7.3425   -2.2193 H   0  0  0  0  0  0  0  0  0  0  0  0
   -0.2847   -7.7106   -4.5879 H   0  0  0  0  0  0  0  0  0  0  0  0
   -0.1095   -5.7949   -6.1438 H   0  0  0  0  0  0  0  0  0  0  0  0
   -0.6045   -3.4844   -5.3590 H   0  0  0  0  0  0  0  0  0  0  0  0
   -0.2105   -3.1642    2.4123 H   0  0  0  0  0  0  0  0  0  0  0  0
    1.5117   -1.2528    3.7096 H   0  0  0  0  0  0  0  0  0  0  0  0
    1.8386    1.0933    4.4051 H   0  0  0  0  0  0  0  0  0  0  0  0
    2.3747    2.8191    2.7236 H   0  0  0  0  0  0  0  0  0  0  0  0
    2.2480   -1.1616   -0.9558 H   0  0  0  0  0  0  0  0  0  0  0  0
    2.8160    0.3816   -2.6402 H   0  0  0  0  0  0  0  0  0  0  0  0
    4.0025    0.5074   -1.3466 H   0  0  0  0  0  0  0  0  0  0  0  0
    0.9001    3.5037   -1.8386 H   0  0  0  0  0  0  0  0  0  0  0  0
    1.0537    2.1689   -2.9882 H   0  0  0  0  0  0  0  0  0  0  0  0
    0.4035    1.8764   -1.3748 H   0  0  0  0  0  0  0  0  0  0  0  0
    3.4738    2.7912   -3.3217 H   0  0  0  0  0  0  0  0  0  0  0  0
    3.3388    4.0949   -2.1300 H   0  0  0  0  0  0  0  0  0  0  0  0
    4.5921    2.8573   -1.9541 H   0  0  0  0  0  0  0  0  0  0  0  0
    3.7682    2.7756    0.2881 H   0  0  0  0  0  0  0  0  0  0  0  0
    2.1428    3.4560    0.2758 H   0  0  0  0  0  0  0  0  0  0  0  0
   -2.2465    0.0159   -0.4734 H   0  0  0  0  0  0  0  0  0  0  0  0
   -0.8842    0.9371    0.1750 H   0  0  0  0  0  0  0  0  0  0  0  0
   -2.6248    2.4339   -0.8358 H   0  0  0  0  0  0  0  0  0  0  0  0
   -3.8291    1.7500    0.2416 H   0  0  0  0  0  0  0  0  0  0  0  0
  1  2  1  0
  2  3  1  0
  3  4  1  0
  4  5  1  0
  5  6  1  0
  6  7  1  0
  7  8  2  0
  7  9  1  0
  9 10  1  0
 10 11  1  0
 11 12  2  0
 12 13  1  0
 13 14  2  0
 14 15  1  0
 15 16  2  0
 16 17  1  0
 17 18  2  0
 18 19  1  0
  9 20  1  0
 20 21  1  0
 21 22  2  0
 21 23  2  0
 21 24  1  0
 24 25  2  0
 25 26  1  0
 26 27  2  0
 27 28  1  0
 28 29  2  0
 29 30  1  0
 30 31  1  0
 31 32  1  0
 32 33  1  0
 32 34  1  0
 32 35  1  0
  6 36  1  0
 36 37  1  0
 37  3  1  0
 19 11  1  0
 29 24  1  0
 18 13  1  0
 35 28  1  0
  1 38  1  0
  1 39  1  0
  1 40  1  0
  2 41  1  0
  2 42  1  0
  3 43  1  0
  4 44  1  0
  4 45  1  0
  5 46  1  0
  5 47  1  0
  9 48  1  0
 10 49  1  0
 10 50  1  0
 14 51  1  0
 15 52  1  0
 16 53  1  0
 17 54  1  0
 20 55  1  0
 25 56  1  0
 26 57  1  0
 27 58  1  0
 30 59  1  0
 31 60  1  0
 31 61  1  0
 33 62  1  0
 33 63  1  0
 33 64  1  0
 34 65  1  0
 34 66  1  0
 34 67  1  0
 35 68  1  0
 35 69  1  0
 36 70  1  0
 36 71  1  0
 37 72  1  0
 37 73  1  0
M  END
$$$$
