
     RDKit          3D

 71 74  0  0  0  0  0  0  0  0999 V2000
   -1.9758   -1.9016   -1.5401 C   0  0  0  0  0  0  0  0  0  0  0  0
   -1.4759   -1.0345   -0.4787 N   0  0  0  0  0  0  0  0  0  0  0  0
   -0.9361    0.2353   -0.6909 C   0  0  0  0  0  0  0  0  0  0  0  0
   -0.3070    0.8279    0.1965 O   0  0  0  0  0  0  0  0  0  0  0  0
   -1.1401    0.9312   -2.0513 C   0  0  0  0  0  0  0  0  0  0  0  0
   -2.5889    1.4067   -2.2543 C   0  0  0  0  0  0  0  0  0  0  0  0
   -3.1200    2.3473   -1.1955 C   0  0  0  0  0  0  0  0  0  0  0  0
   -3.8308    1.8538   -0.0946 C   0  0  0  0  0  0  0  0  0  0  0  0
   -4.3065    2.7242    0.8886 C   0  0  0  0  0  0  0  0  0  0  0  0
   -4.0787    4.1041    0.7959 C   0  0  0  0  0  0  0  0  0  0  0  0
   -4.5998    5.0408    1.8557 C   0  0  0  0  0  0  0  0  0  0  0  0
   -4.0713    4.7106    3.1749 N   0  0  0  0  0  0  0  0  0  0  0  0
   -3.3706    4.5958   -0.3079 C   0  0  0  0  0  0  0  0  0  0  0  0
   -2.8963    3.7263   -1.2932 C   0  0  0  0  0  0  0  0  0  0  0  0
   -0.2114    2.0946   -2.1105 N   0  0  0  0  0  0  0  0  0  0  0  0
    1.1879    1.9583   -3.0199 S   0  0  0  0  0  0  0  0  0  0  0  0
    1.9799    3.1396   -2.7616 O   0  0  0  0  0  0  0  0  0  0  0  0
    0.7868    1.5928   -4.3622 O   0  0  0  0  0  0  0  0  0  0  0  0
    2.0315    0.5699   -2.3056 C   0  0  0  0  0  0  0  0  0  0  0  0
    2.0918   -0.6383   -2.9908 C   0  0  0  0  0  0  0  0  0  0  0  0
    2.7681   -1.7120   -2.4144 C   0  0  0  0  0  0  0  0  0  0  0  0
    3.3966   -1.6018   -1.1545 C   0  0  0  0  0  0  0  0  0  0  0  0
    3.3761   -0.3580   -0.4884 C   0  0  0  0  0  0  0  0  0  0  0  0
    2.6728    0.7157   -1.0740 C   0  0  0  0  0  0  0  0  0  0  0  0
    4.0276   -0.0860    0.8525 C   0  0  0  0  0  0  0  0  0  0  0  0
    5.3541   -0.8007    1.0901 C   0  0  0  0  0  0  0  0  0  0  0  0
    5.1875   -2.2346    1.5817 C   0  0  0  0  0  0  0  0  0  0  0  0
    4.0996   -3.0327    0.8715 C   0  0  0  0  0  0  0  0  0  0  0  0
    4.0994   -2.8435   -0.6419 C   0  0  0  0  0  0  0  0  0  0  0  0
   -1.2598   -1.6228    0.8487 C   0  0  0  0  0  0  0  0  0  0  0  0
    0.1369   -2.2376    1.0145 C   0  0  0  0  0  0  0  0  0  0  0  0
   -0.0129   -3.3456    2.0594 C   0  0  0  0  0  0  0  0  0  0  0  0
   -1.4813   -3.3465    2.4705 C   0  0  0  0  0  0  0  0  0  0  0  0
   -2.2022   -2.7520    1.2704 C   0  0  0  0  0  0  0  0  0  0  0  0
   -1.3234   -2.7761   -1.6208 H   0  0  0  0  0  0  0  0  0  0  0  0
   -2.9927   -2.2162   -1.2896 H   0  0  0  0  0  0  0  0  0  0  0  0
   -2.0070   -1.4171   -2.5141 H   0  0  0  0  0  0  0  0  0  0  0  0
   -0.8825    0.2413   -2.8591 H   0  0  0  0  0  0  0  0  0  0  0  0
   -3.2632    0.5436   -2.3138 H   0  0  0  0  0  0  0  0  0  0  0  0
   -2.6713    1.9039   -3.2305 H   0  0  0  0  0  0  0  0  0  0  0  0
   -4.0165    0.7880    0.0149 H   0  0  0  0  0  0  0  0  0  0  0  0
   -4.8493    2.3234    1.7427 H   0  0  0  0  0  0  0  0  0  0  0  0
   -4.3298    6.0755    1.6151 H   0  0  0  0  0  0  0  0  0  0  0  0
   -5.6943    4.9899    1.8722 H   0  0  0  0  0  0  0  0  0  0  0  0
   -3.0529    4.7086    3.1240 H   0  0  0  0  0  0  0  0  0  0  0  0
   -4.3254    5.4477    3.8287 H   0  0  0  0  0  0  0  0  0  0  0  0
   -3.1782    5.6613   -0.4100 H   0  0  0  0  0  0  0  0  0  0  0  0
   -2.3432    4.1335   -2.1380 H   0  0  0  0  0  0  0  0  0  0  0  0
   -0.0485    2.5136   -1.1873 H   0  0  0  0  0  0  0  0  0  0  0  0
    1.6275   -0.7549   -3.9669 H   0  0  0  0  0  0  0  0  0  0  0  0
    2.8086   -2.6531   -2.9617 H   0  0  0  0  0  0  0  0  0  0  0  0
    2.6249    1.6760   -0.5609 H   0  0  0  0  0  0  0  0  0  0  0  0
    4.2373    0.9901    0.9197 H   0  0  0  0  0  0  0  0  0  0  0  0
    3.3111   -0.3119    1.6516 H   0  0  0  0  0  0  0  0  0  0  0  0
    5.9233   -0.2534    1.8521 H   0  0  0  0  0  0  0  0  0  0  0  0
    5.9676   -0.7812    0.1806 H   0  0  0  0  0  0  0  0  0  0  0  0
    6.1495   -2.7511    1.4745 H   0  0  0  0  0  0  0  0  0  0  0  0
    4.9648   -2.2283    2.6561 H   0  0  0  0  0  0  0  0  0  0  0  0
    3.1167   -2.7853    1.2888 H   0  0  0  0  0  0  0  0  0  0  0  0
    4.2661   -4.0935    1.0978 H   0  0  0  0  0  0  0  0  0  0  0  0
    3.5890   -3.7200   -1.0636 H   0  0  0  0  0  0  0  0  0  0  0  0
    5.1232   -2.8606   -1.0355 H   0  0  0  0  0  0  0  0  0  0  0  0
   -1.3623   -0.8167    1.5894 H   0  0  0  0  0  0  0  0  0  0  0  0
    0.5071   -2.6633    0.0746 H   0  0  0  0  0  0  0  0  0  0  0  0
    0.8634   -1.4836    1.3350 H   0  0  0  0  0  0  0  0  0  0  0  0
    0.6432   -3.1852    2.9208 H   0  0  0  0  0  0  0  0  0  0  0  0
    0.2585   -4.3102    1.6151 H   0  0  0  0  0  0  0  0  0  0  0  0
   -1.6236   -2.7071    3.3500 H   0  0  0  0  0  0  0  0  0  0  0  0
   -1.8413   -4.3488    2.7200 H   0  0  0  0  0  0  0  0  0  0  0  0
   -3.2016   -2.3851    1.5230 H   0  0  0  0  0  0  0  0  0  0  0  0
   -2.3061   -3.5207    0.4969 H   0  0  0  0  0  0  0  0  0  0  0  0
  1  2  1  0
  2  3  1  0
  3  4  2  0
  3  5  1  0
  5  6  1  0
  6  7  1  0
  7  8  2  0
  8  9  1  0
  9 10  2  0
 10 11  1  0
 11 12  1  0
 10 13  1  0
 13 14  2  0
  5 15  1  0
 15 16  1  0
 16 17  2  0
 16 18  2  0
 16 19  1  0
 19 20  2  0
 20 21  1  0
 21 22  2  0
 22 23  1  0
 23 24  2  0
 23 25  1  0
 25 26  1  0
 26 27  1  0
 27 28  1  0
 28 29  1  0
  2 30  1  0
 30 31  1  0
 31 32  1  0
 32 33  1  0
 33 34  1  0
 14  7  1  0
 24 19  1  0
 34 30  1  0
 29 22  1  0
  1 35  1  0
  1 36  1  0
  1 37  1  0
  5 38  1  0
  6 39  1  0
  6 40  1  0
  8 41  1  0
  9 42  1  0
 11 43  1  0
 11 44  1  0
 12 45  1  0
 12 46  1  0
 13 47  1  0
 14 48  1  0
 15 49  1  0
 20 50  1  0
 21 51  1  0
 24 52  1  0
 25 53  1  0
 25 54  1  0
 26 55  1  0
 26 56  1  0
 27 57  1  0
 27 58  1  0
 28 59  1  0
 28 60  1  0
 29 61  1  0
 29 62  1  0
 30 63  1  0
 31 64  1  0
 31 65  1  0
 32 66  1  0
 32 67  1  0
 33 68  1  0
 33 69  1  0
 34 70  1  0
 34 71  1  0
M  END
$$$$
