
     RDKit          3D

 60 62  0  0  0  0  0  0  0  0999 V2000
    2.2778   -0.3915    2.5560 C   0  0  0  0  0  0  0  0  0  0  0  0
    1.9971   -0.9519    1.1501 C   0  0  0  0  0  0  0  0  0  0  0  0
    1.1185   -2.2106    1.2961 C   0  0  0  0  0  0  0  0  0  0  0  0
    1.3342    0.0919    0.2151 C   0  0  0  0  0  0  0  0  0  0  0  0
   -0.0219    0.5838    0.6495 C   0  0  0  0  0  0  0  0  0  0  0  0
   -0.3231    1.5665    1.5702 C   0  0  0  0  0  0  0  0  0  0  0  0
   -1.7264    1.7693    1.7035 C   0  0  0  0  0  0  0  0  0  0  0  0
   -2.4670    0.9525    0.8681 C   0  0  0  0  0  0  0  0  0  0  0  0
   -3.9180    0.9166    0.7633 C   0  0  0  0  0  0  0  0  0  0  0  0
   -4.6730    1.6142    1.4346 O   0  0  0  0  0  0  0  0  0  0  0  0
   -4.3314   -0.0274   -0.1754 O   0  0  0  0  0  0  0  0  0  0  0  0
   -5.7105   -0.0302   -0.3898 C   0  0  0  0  0  0  0  0  0  0  0  0
   -6.4547   -1.1125    0.0731 C   0  0  0  0  0  0  0  0  0  0  0  0
   -7.8299   -1.1418   -0.1690 C   0  0  0  0  0  0  0  0  0  0  0  0
   -8.4443   -0.0961   -0.8765 C   0  0  0  0  0  0  0  0  0  0  0  0
   -9.9073   -0.1486   -1.1322 C   0  0  0  0  0  0  0  0  0  0  0  0
  -10.6510    0.9099   -1.1639 N   0  0  0  0  0  0  0  0  0  0  0  0
  -10.5223   -1.3437   -1.3538 N   0  0  0  0  0  0  0  0  0  0  0  0
   -7.6838    0.9745   -1.3579 C   0  0  0  0  0  0  0  0  0  0  0  0
   -6.3159    0.9955   -1.1152 C   0  0  0  0  0  0  0  0  0  0  0  0
   -5.5780    2.0048   -1.5987 F   0  0  0  0  0  0  0  0  0  0  0  0
   -1.4424   -0.0451   -0.0725 S   0  0  0  0  0  0  0  0  0  0  0  0
    3.3320   -1.3685    0.4954 C   0  0  0  0  0  0  0  0  0  0  0  0
    3.5192   -2.4841    0.0165 O   0  0  0  0  0  0  0  0  0  0  0  0
    4.3012   -0.3893    0.4532 N   0  0  0  0  0  0  0  0  0  0  0  0
    5.5705   -0.5729   -0.2471 C   0  0  1  0  0  0  0  0  0  0  0  0
    5.4014   -0.4664   -1.7770 C   0  0  0  0  0  0  0  0  0  0  0  0
    6.7158   -0.4205   -2.5028 C   0  0  0  0  0  0  0  0  0  0  0  0
    7.8898   -0.2312   -1.8825 C   0  0  0  0  0  0  0  0  0  0  0  0
    8.0091    0.0131   -0.4025 C   0  0  0  0  0  0  0  0  0  0  0  0
    6.6697    0.3784    0.2658 C   0  0  1  0  0  0  0  0  0  0  0  0
    6.3573    1.8475    0.0369 C   0  0  0  0  0  0  0  0  0  0  0  0
    7.1244    2.7172   -0.3415 O   0  0  0  0  0  0  0  0  0  0  0  0
    5.0997    2.1974    0.3911 O   0  0  0  0  0  0  0  0  0  0  0  0
    2.9363   -1.0624    3.1203 H   0  0  0  0  0  0  0  0  0  0  0  0
    2.7689    0.5869    2.5150 H   0  0  0  0  0  0  0  0  0  0  0  0
    1.3567   -0.2739    3.1366 H   0  0  0  0  0  0  0  0  0  0  0  0
    0.8511   -2.6256    0.3175 H   0  0  0  0  0  0  0  0  0  0  0  0
    0.1919   -2.0012    1.8406 H   0  0  0  0  0  0  0  0  0  0  0  0
    1.6462   -2.9968    1.8494 H   0  0  0  0  0  0  0  0  0  0  0  0
    1.9819    0.9739    0.1173 H   0  0  0  0  0  0  0  0  0  0  0  0
    1.2696   -0.3220   -0.8013 H   0  0  0  0  0  0  0  0  0  0  0  0
    0.4250    2.1152    2.1301 H   0  0  0  0  0  0  0  0  0  0  0  0
   -2.1806    2.4870    2.3786 H   0  0  0  0  0  0  0  0  0  0  0  0
   -5.9767   -1.9185    0.6224 H   0  0  0  0  0  0  0  0  0  0  0  0
   -8.4236   -1.9705    0.2115 H   0  0  0  0  0  0  0  0  0  0  0  0
  -10.1167    1.7538   -0.9383 H   0  0  0  0  0  0  0  0  0  0  0  0
  -11.4625   -1.2008   -1.7123 H   0  0  0  0  0  0  0  0  0  0  0  0
  -10.0005   -2.0164   -1.9030 H   0  0  0  0  0  0  0  0  0  0  0  0
   -8.1300    1.7750   -1.9381 H   0  0  0  0  0  0  0  0  0  0  0  0
    4.0572    0.5694    0.6848 H   0  0  0  0  0  0  0  0  0  0  0  0
    5.8941   -1.5996   -0.0217 H   0  0  0  0  0  0  0  0  0  0  0  0
    4.8256   -1.3261   -2.1401 H   0  0  0  0  0  0  0  0  0  0  0  0
    4.8229    0.4279   -2.0396 H   0  0  0  0  0  0  0  0  0  0  0  0
    6.6940   -0.5683   -3.5802 H   0  0  0  0  0  0  0  0  0  0  0  0
    8.8111   -0.2375   -2.4611 H   0  0  0  0  0  0  0  0  0  0  0  0
    8.4072   -0.9002    0.0573 H   0  0  0  0  0  0  0  0  0  0  0  0
    8.7545    0.7984   -0.2304 H   0  0  0  0  0  0  0  0  0  0  0  0
    6.7831    0.2639    1.3520 H   0  0  0  0  0  0  0  0  0  0  0  0
    5.0966    3.1675    0.2271 H   0  0  0  0  0  0  0  0  0  0  0  0
  1  2  1  0
  2  3  1  0
  2  4  1  0
  4  5  1  0
  5  6  2  0
  6  7  1  0
  7  8  2  0
  8  9  1  0
  9 10  2  0
  9 11  1  0
 11 12  1  0
 12 13  2  0
 13 14  1  0
 14 15  2  0
 15 16  1  0
 16 17  2  3
 16 18  1  0
 15 19  1  0
 19 20  2  0
 20 21  1  0
  8 22  1  0
  2 23  1  0
 23 24  2  0
 23 25  1  0
 25 26  1  0
 26 27  1  0
 27 28  1  0
 28 29  2  0
 29 30  1  0
 30 31  1  0
 31 32  1  0
 32 33  2  0
 32 34  1  0
 22  5  1  0
 31 26  1  0
 20 12  1  0
  1 35  1  0
  1 36  1  0
  1 37  1  0
  3 38  1  0
  3 39  1  0
  3 40  1  0
  4 41  1  0
  4 42  1  0
  6 43  1  0
  7 44  1  0
 13 45  1  0
 14 46  1  0
 17 47  1  0
 18 48  1  0
 18 49  1  0
 19 50  1  0
 25 51  1  0
 26 52  1  6
 27 53  1  0
 27 54  1  0
 28 55  1  0
 29 56  1  0
 30 57  1  0
 30 58  1  0
 31 59  1  1
 34 60  1  0
M  END
$$$$
