
     RDKit          3D

 62 64  0  0  0  0  0  0  0  0999 V2000
   -2.8788   -2.1262   -1.4796 C   0  0  0  0  0  0  0  0  0  0  0  0
   -1.9746   -0.9321   -1.1860 C   0  0  0  0  0  0  0  0  0  0  0  0
   -2.5844    0.4929   -1.3115 C   0  0  0  0  0  0  0  0  0  0  0  0
   -2.6194    0.9420   -2.8205 C   0  0  0  0  0  0  0  0  0  0  0  0
   -3.4273    0.0960   -3.7966 C   0  0  0  0  0  0  0  0  0  0  0  0
   -1.7342    1.5723   -0.5501 C   0  0  0  0  0  0  0  0  0  0  0  0
   -0.2610    1.6216   -0.8744 C   0  0  0  0  0  0  0  0  0  0  0  0
    0.3744    2.3587   -1.8533 C   0  0  0  0  0  0  0  0  0  0  0  0
    1.7863    2.1750   -1.8394 C   0  0  0  0  0  0  0  0  0  0  0  0
    2.2042    1.3208   -0.8351 C   0  0  0  0  0  0  0  0  0  0  0  0
    3.5772    0.9304   -0.5518 C   0  0  0  0  0  0  0  0  0  0  0  0
    4.5496    1.3217   -1.1913 O   0  0  0  0  0  0  0  0  0  0  0  0
    3.6343    0.0331    0.5129 O   0  0  0  0  0  0  0  0  0  0  0  0
    4.9400   -0.2748    0.8950 C   0  0  0  0  0  0  0  0  0  0  0  0
    5.4727   -1.5107    0.5369 C   0  0  0  0  0  0  0  0  0  0  0  0
    6.7694   -1.8342    0.9453 C   0  0  0  0  0  0  0  0  0  0  0  0
    7.5149   -0.9265    1.7161 C   0  0  0  0  0  0  0  0  0  0  0  0
    8.9012   -1.2612    2.1549 C   0  0  0  0  0  0  0  0  0  0  0  0
    9.4076   -0.6457    3.1717 N   0  0  0  0  0  0  0  0  0  0  0  0
    9.6359   -2.1974    1.4855 N   0  0  0  0  0  0  0  0  0  0  0  0
    6.9534    0.2990    2.0949 C   0  0  0  0  0  0  0  0  0  0  0  0
    5.6666    0.6169    1.6821 C   0  0  0  0  0  0  0  0  0  0  0  0
    5.1228    1.7859    2.0492 F   0  0  0  0  0  0  0  0  0  0  0  0
    0.8716    0.7646    0.0841 S   0  0  0  0  0  0  0  0  0  0  0  0
   -4.0157    0.6330   -0.7145 C   0  0  0  0  0  0  0  0  0  0  0  0
   -4.8804    1.2590   -1.3417 O   0  0  0  0  0  0  0  0  0  0  0  0
   -4.3364    0.1497    0.5378 N   0  0  0  0  0  0  0  0  0  0  0  0
   -3.5130   -0.4818    1.5570 C   0  0  0  0  0  0  0  0  0  0  0  0
   -4.1775   -0.0753    2.8607 C   0  0  0  0  0  0  0  0  0  0  0  0
   -5.6559   -0.0980    2.5080 C   0  0  0  0  0  0  0  0  0  0  0  0
   -5.7013    0.3749    1.0492 C   0  0  2  0  0  0  0  0  0  0  0  0
   -6.8105   -0.3950    0.3253 C   0  0  0  0  0  0  0  0  0  0  0  0
   -8.0100   -0.2489    0.5165 O   0  0  0  0  0  0  0  0  0  0  0  0
   -6.3811   -1.3633   -0.5102 O   0  0  0  0  0  0  0  0  0  0  0  0
   -2.3358   -3.0524   -1.2597 H   0  0  0  0  0  0  0  0  0  0  0  0
   -3.7799   -2.1299   -0.8651 H   0  0  0  0  0  0  0  0  0  0  0  0
   -3.1824   -2.1840   -2.5239 H   0  0  0  0  0  0  0  0  0  0  0  0
   -1.5748   -1.0815   -0.1790 H   0  0  0  0  0  0  0  0  0  0  0  0
   -1.1038   -1.0088   -1.8506 H   0  0  0  0  0  0  0  0  0  0  0  0
   -1.5995    0.9842   -3.2190 H   0  0  0  0  0  0  0  0  0  0  0  0
   -3.0059    1.9688   -2.8787 H   0  0  0  0  0  0  0  0  0  0  0  0
   -2.8715   -0.7980   -4.0916 H   0  0  0  0  0  0  0  0  0  0  0  0
   -3.6065    0.6657   -4.7152 H   0  0  0  0  0  0  0  0  0  0  0  0
   -4.3993   -0.2012   -3.3957 H   0  0  0  0  0  0  0  0  0  0  0  0
   -2.1553    2.5667   -0.7633 H   0  0  0  0  0  0  0  0  0  0  0  0
   -1.8441    1.4772    0.5341 H   0  0  0  0  0  0  0  0  0  0  0  0
   -0.1488    3.0006   -2.5532 H   0  0  0  0  0  0  0  0  0  0  0  0
    2.4726    2.6535   -2.5299 H   0  0  0  0  0  0  0  0  0  0  0  0
    4.8897   -2.2146   -0.0494 H   0  0  0  0  0  0  0  0  0  0  0  0
    7.1779   -2.8060    0.6821 H   0  0  0  0  0  0  0  0  0  0  0  0
   10.3437   -1.0037    3.3680 H   0  0  0  0  0  0  0  0  0  0  0  0
    9.4199   -2.3024    0.4993 H   0  0  0  0  0  0  0  0  0  0  0  0
   10.6366   -2.1528    1.6360 H   0  0  0  0  0  0  0  0  0  0  0  0
    7.5102    1.0032    2.7060 H   0  0  0  0  0  0  0  0  0  0  0  0
   -3.5750   -1.5659    1.4166 H   0  0  0  0  0  0  0  0  0  0  0  0
   -2.4698   -0.1777    1.5308 H   0  0  0  0  0  0  0  0  0  0  0  0
   -3.9268   -0.7430    3.6894 H   0  0  0  0  0  0  0  0  0  0  0  0
   -3.8782    0.9435    3.1349 H   0  0  0  0  0  0  0  0  0  0  0  0
   -6.2482    0.5455    3.1662 H   0  0  0  0  0  0  0  0  0  0  0  0
   -6.0433   -1.1196    2.6110 H   0  0  0  0  0  0  0  0  0  0  0  0
   -5.9165    1.4473    0.9767 H   0  0  0  0  0  0  0  0  0  0  0  0
   -7.2057   -1.7154   -0.9033 H   0  0  0  0  0  0  0  0  0  0  0  0
  1  2  1  0
  2  3  1  0
  3  4  1  0
  4  5  1  0
  3  6  1  0
  6  7  1  0
  7  8  2  0
  8  9  1  0
  9 10  2  0
 10 11  1  0
 11 12  2  0
 11 13  1  0
 13 14  1  0
 14 15  2  0
 15 16  1  0
 16 17  2  0
 17 18  1  0
 18 19  2  3
 18 20  1  0
 17 21  1  0
 21 22  2  0
 22 23  1  0
 10 24  1  0
  3 25  1  0
 25 26  2  0
 25 27  1  0
 27 28  1  0
 28 29  1  0
 29 30  1  0
 30 31  1  0
 31 32  1  0
 32 33  2  0
 32 34  1  0
 24  7  1  0
 31 27  1  0
 22 14  1  0
  1 35  1  0
  1 36  1  0
  1 37  1  0
  2 38  1  0
  2 39  1  0
  4 40  1  0
  4 41  1  0
  5 42  1  0
  5 43  1  0
  5 44  1  0
  6 45  1  0
  6 46  1  0
  8 47  1  0
  9 48  1  0
 15 49  1  0
 16 50  1  0
 19 51  1  0
 20 52  1  0
 20 53  1  0
 21 54  1  0
 28 55  1  0
 28 56  1  0
 29 57  1  0
 29 58  1  0
 30 59  1  0
 30 60  1  0
 31 61  1  1
 34 62  1  0
M  END
$$$$
