
     RDKit          3D

 90 94  0  0  0  0  0  0  0  0999 V2000
   10.9252   -1.3068    1.1521 C   0  0  0  0  0  0  0  0  0  0  0  0
   10.4310    0.0896    1.3537 C   0  0  0  0  0  0  0  0  0  0  0  0
   11.2677    0.7324    2.4611 C   0  0  0  0  0  0  0  0  0  0  0  0
   10.6289    0.8780    0.0761 C   0  0  0  0  0  0  0  0  0  0  0  0
    9.0895    0.1643    1.8118 O   0  0  0  0  0  0  0  0  0  0  0  0
    8.0052   -0.3375    1.1322 C   0  0  0  0  0  0  0  0  0  0  0  0
    8.1516   -0.9142    0.0209 O   0  0  0  0  0  0  0  0  0  0  0  0
    6.7150   -0.1737    1.7444 N   0  0  0  0  0  0  0  0  0  0  0  0
    5.5327   -0.6609    1.1149 C   0  0  0  0  0  0  0  0  0  0  0  0
    5.0645   -1.9527    1.3518 C   0  0  0  0  0  0  0  0  0  0  0  0
    3.9065   -2.4152    0.7290 C   0  0  0  0  0  0  0  0  0  0  0  0
    3.2428   -1.5448   -0.1302 C   0  0  0  0  0  0  0  0  0  0  0  0
    3.7198   -0.2519   -0.3615 C   0  0  0  0  0  0  0  0  0  0  0  0
    2.9264    0.5529   -1.2879 C   0  0  0  0  0  0  0  0  0  0  0  0
    3.6002    1.4954   -2.0594 C   0  0  0  0  0  0  0  0  0  0  0  0
    2.9139    2.2906   -2.9611 C   0  0  0  0  0  0  0  0  0  0  0  0
    1.5290    2.1154   -3.0695 C   0  0  0  0  0  0  0  0  0  0  0  0
    0.8751    1.1924   -2.3125 C   0  0  0  0  0  0  0  0  0  0  0  0
   -0.5671    1.0644   -2.4822 C   0  0  0  0  0  0  0  0  0  0  0  0
   -1.1452    1.7739   -3.3409 O   0  0  0  0  0  0  0  0  0  0  0  0
   -1.3674    0.1709   -1.7214 N   0  0  0  0  0  0  0  0  0  0  0  0
   -2.8142    0.0575   -1.9085 C   0  0  1  0  0  0  0  0  0  0  0  0
   -3.2112   -1.3238   -2.3216 C   0  0  0  0  0  0  0  0  0  0  0  0
   -2.8226   -2.3721   -1.3017 C   0  0  0  0  0  0  0  0  0  0  0  0
   -3.2190   -3.7569   -1.7180 C   0  0  0  0  0  0  0  0  0  0  0  0
   -2.8580   -4.7750   -0.7516 N   0  0  0  0  0  0  0  0  0  0  0  0
   -3.7006   -5.4946   -0.1257 C   0  0  0  0  0  0  0  0  0  0  0  0
   -3.2822   -6.4920    0.8244 N   0  0  0  0  0  0  0  0  0  0  0  0
   -5.0901   -5.3019   -0.3777 N   0  0  0  0  0  0  0  0  0  0  0  0
   -3.5052    0.5372   -0.5571 B   0  0  0  0  0  0  0  0  0  0  0  0
   -4.5465   -0.1854    0.1238 O   0  0  0  0  0  0  0  0  0  0  0  0
   -5.0759    0.6728    1.0772 C   0  0  2  0  0  0  0  0  0  0  0  0
   -6.5584    0.4578    1.1587 C   0  0  0  0  0  0  0  0  0  0  0  0
   -7.3275    1.4393    0.3304 C   0  0  0  0  0  0  0  0  0  0  0  0
   -6.5108    1.8443   -0.9034 C   0  0  0  0  0  0  0  0  0  0  0  0
   -5.8145    2.8238    0.0570 C   0  0  0  0  0  0  0  0  0  0  0  0
   -7.1021    2.8426    0.7987 C   0  0  0  0  0  0  0  0  0  0  0  0
   -8.0651    3.8081    0.1236 C   0  0  0  0  0  0  0  0  0  0  0  0
   -7.0970    3.0882    2.2697 C   0  0  0  0  0  0  0  0  0  0  0  0
   -4.6907    2.0729    0.6846 C   0  0  1  0  0  0  0  0  0  0  0  0
   -4.0736    2.7772    1.8685 C   0  0  0  0  0  0  0  0  0  0  0  0
   -3.6779    1.9543   -0.2666 O   0  0  0  0  0  0  0  0  0  0  0  0
    1.5593    0.4005   -1.4143 C   0  0  0  0  0  0  0  0  0  0  0  0
    4.8572    0.1906    0.2556 C   0  0  0  0  0  0  0  0  0  0  0  0
   11.9962   -1.3649    1.4591 H   0  0  0  0  0  0  0  0  0  0  0  0
   10.4102   -2.0818    1.7386 H   0  0  0  0  0  0  0  0  0  0  0  0
   10.8331   -1.5485    0.0566 H   0  0  0  0  0  0  0  0  0  0  0  0
   12.2516    0.9702    2.0263 H   0  0  0  0  0  0  0  0  0  0  0  0
   11.3338    0.0178    3.3043 H   0  0  0  0  0  0  0  0  0  0  0  0
   10.6906    1.6132    2.8102 H   0  0  0  0  0  0  0  0  0  0  0  0
   10.7567    0.1826   -0.7699 H   0  0  0  0  0  0  0  0  0  0  0  0
    9.7293    1.5032   -0.1342 H   0  0  0  0  0  0  0  0  0  0  0  0
   11.5049    1.5277    0.1926 H   0  0  0  0  0  0  0  0  0  0  0  0
    6.6334    0.3122    2.6705 H   0  0  0  0  0  0  0  0  0  0  0  0
    5.6309   -2.5981    2.0418 H   0  0  0  0  0  0  0  0  0  0  0  0
    3.5380   -3.4303    0.9139 H   0  0  0  0  0  0  0  0  0  0  0  0
    2.3433   -1.9196   -0.6072 H   0  0  0  0  0  0  0  0  0  0  0  0
    4.6636    1.6538   -1.9981 H   0  0  0  0  0  0  0  0  0  0  0  0
    3.4162    3.0390   -3.5803 H   0  0  0  0  0  0  0  0  0  0  0  0
    1.0163    2.7432   -3.7759 H   0  0  0  0  0  0  0  0  0  0  0  0
   -0.9474   -0.4289   -1.0082 H   0  0  0  0  0  0  0  0  0  0  0  0
   -3.0669    0.7531   -2.7363 H   0  0  0  0  0  0  0  0  0  0  0  0
   -2.6387   -1.5567   -3.2444 H   0  0  0  0  0  0  0  0  0  0  0  0
   -4.2699   -1.3411   -2.5706 H   0  0  0  0  0  0  0  0  0  0  0  0
   -1.7552   -2.3024   -1.0252 H   0  0  0  0  0  0  0  0  0  0  0  0
   -3.3900   -2.1463   -0.3700 H   0  0  0  0  0  0  0  0  0  0  0  0
   -4.3127   -3.8033   -1.8499 H   0  0  0  0  0  0  0  0  0  0  0  0
   -2.7325   -4.0843   -2.6758 H   0  0  0  0  0  0  0  0  0  0  0  0
   -3.7557   -6.5829    1.7324 H   0  0  0  0  0  0  0  0  0  0  0  0
   -2.4773   -7.1489    0.6010 H   0  0  0  0  0  0  0  0  0  0  0  0
   -5.5521   -4.3717   -0.2509 H   0  0  0  0  0  0  0  0  0  0  0  0
   -5.6858   -6.0769   -0.6946 H   0  0  0  0  0  0  0  0  0  0  0  0
   -4.5958    0.4197    2.0500 H   0  0  0  0  0  0  0  0  0  0  0  0
   -6.8322   -0.5624    0.7932 H   0  0  0  0  0  0  0  0  0  0  0  0
   -6.8932    0.5108    2.2154 H   0  0  0  0  0  0  0  0  0  0  0  0
   -8.3522    1.1363    0.1117 H   0  0  0  0  0  0  0  0  0  0  0  0
   -5.8761    1.0693   -1.3297 H   0  0  0  0  0  0  0  0  0  0  0  0
   -7.1740    2.3896   -1.5903 H   0  0  0  0  0  0  0  0  0  0  0  0
   -5.4920    3.7599   -0.4292 H   0  0  0  0  0  0  0  0  0  0  0  0
   -8.8458    3.2315   -0.4548 H   0  0  0  0  0  0  0  0  0  0  0  0
   -7.5555    4.4401   -0.6455 H   0  0  0  0  0  0  0  0  0  0  0  0
   -8.5313    4.5157    0.8314 H   0  0  0  0  0  0  0  0  0  0  0  0
   -6.4799    2.4279    2.8740 H   0  0  0  0  0  0  0  0  0  0  0  0
   -6.8753    4.1699    2.4204 H   0  0  0  0  0  0  0  0  0  0  0  0
   -8.1410    2.9553    2.6222 H   0  0  0  0  0  0  0  0  0  0  0  0
   -4.5314    3.7875    2.0583 H   0  0  0  0  0  0  0  0  0  0  0  0
   -2.9811    2.9902    1.7377 H   0  0  0  0  0  0  0  0  0  0  0  0
   -4.0997    2.1349    2.7899 H   0  0  0  0  0  0  0  0  0  0  0  0
    1.0706   -0.3406   -0.7995 H   0  0  0  0  0  0  0  0  0  0  0  0
    5.2033    1.2068    0.0534 H   0  0  0  0  0  0  0  0  0  0  0  0
  1  2  1  0
  2  3  1  0
  2  4  1  0
  2  5  1  0
  5  6  1  0
  6  7  2  0
  6  8  1  0
  8  9  1  0
  9 10  2  0
 10 11  1  0
 11 12  2  0
 12 13  1  0
 13 14  1  0
 14 15  2  0
 15 16  1  0
 16 17  2  0
 17 18  1  0
 18 19  1  0
 19 20  2  0
 19 21  1  0
 21 22  1  0
 22 23  1  0
 23 24  1  0
 24 25  1  0
 25 26  1  0
 26 27  2  3
 27 28  1  0
 27 29  1  0
 22 30  1  0
 30 31  1  0
 31 32  1  0
 32 33  1  0
 33 34  1  0
 34 35  1  0
 35 36  1  0
 36 37  1  0
 37 38  1  0
 37 39  1  0
 36 40  1  0
 40 41  1  1
 40 42  1  0
 18 43  2  0
 13 44  2  0
 44  9  1  0
 43 14  1  0
 42 30  1  0
 40 32  1  0
 37 34  1  0
  1 45  1  0
  1 46  1  0
  1 47  1  0
  3 48  1  0
  3 49  1  0
  3 50  1  0
  4 51  1  0
  4 52  1  0
  4 53  1  0
  8 54  1  0
 10 55  1  0
 11 56  1  0
 12 57  1  0
 15 58  1  0
 16 59  1  0
 17 60  1  0
 21 61  1  0
 22 62  1  6
 23 63  1  0
 23 64  1  0
 24 65  1  0
 24 66  1  0
 25 67  1  0
 25 68  1  0
 28 69  1  0
 28 70  1  0
 29 71  1  0
 29 72  1  0
 32 73  1  1
 33 74  1  0
 33 75  1  0
 34 76  1  0
 35 77  1  0
 35 78  1  0
 36 79  1  0
 38 80  1  0
 38 81  1  0
 38 82  1  0
 39 83  1  0
 39 84  1  0
 39 85  1  0
 41 86  1  0
 41 87  1  0
 41 88  1  0
 43 89  1  0
 44 90  1  0
M  END
$$$$
