
     RDKit          3D

 63 65  0  0  0  0  0  0  0  0999 V2000
   -6.1660   -3.4224   -1.1018 C   0  0  0  0  0  0  0  0  0  0  0  0
   -5.0901   -2.4825   -1.1065 O   0  0  0  0  0  0  0  0  0  0  0  0
   -3.9883   -2.8954   -0.4205 C   0  0  0  0  0  0  0  0  0  0  0  0
   -3.8829   -3.9968    0.1056 O   0  0  0  0  0  0  0  0  0  0  0  0
   -2.8645   -1.8730   -0.4599 C   0  0  2  0  0  0  0  0  0  0  0  0
   -3.3490   -0.4161   -0.5912 C   0  0  0  0  0  0  0  0  0  0  0  0
   -4.0742    0.0897    0.6379 C   0  0  0  0  0  0  0  0  0  0  0  0
   -5.4615    0.2897    0.6159 C   0  0  0  0  0  0  0  0  0  0  0  0
   -6.1331    0.7470    1.7514 C   0  0  0  0  0  0  0  0  0  0  0  0
   -5.4254    1.0139    2.9231 C   0  0  0  0  0  0  0  0  0  0  0  0
   -4.0415    0.8238    2.9552 C   0  0  0  0  0  0  0  0  0  0  0  0
   -3.2790    1.1177    4.1957 C   0  0  0  0  0  0  0  0  0  0  0  0
   -2.1578    1.7657    4.1736 N   0  0  0  0  0  0  0  0  0  0  0  0
   -3.7435    0.7186    5.4087 N   0  0  0  0  0  0  0  0  0  0  0  0
   -3.3667    0.3623    1.8187 C   0  0  0  0  0  0  0  0  0  0  0  0
   -1.8608   -2.2874   -1.5662 C   0  0  1  0  0  0  0  0  0  0  0  0
   -2.4549   -2.2361   -2.9785 C   0  0  0  0  0  0  0  0  0  0  0  0
   -0.6392   -1.4720   -1.5424 N   0  0  0  0  0  0  0  0  0  0  0  0
    0.2749   -1.5598   -0.5097 C   0  0  0  0  0  0  0  0  0  0  0  0
    0.1049   -2.2551    0.4836 O   0  0  0  0  0  0  0  0  0  0  0  0
    1.5337   -0.7801   -0.6729 C   0  0  0  0  0  0  0  0  0  0  0  0
    1.5929    0.3858   -1.4435 C   0  0  0  0  0  0  0  0  0  0  0  0
    2.8015    1.0813   -1.5703 C   0  0  0  0  0  0  0  0  0  0  0  0
    3.9689    0.6367   -0.9263 C   0  0  0  0  0  0  0  0  0  0  0  0
    5.2383    1.3695   -1.0674 C   0  0  0  0  0  0  0  0  0  0  0  0
    5.7624    1.6693   -2.3362 C   0  0  0  0  0  0  0  0  0  0  0  0
    6.9636    2.3694   -2.4758 C   0  0  0  0  0  0  0  0  0  0  0  0
    7.6700    2.7778   -1.3454 C   0  0  0  0  0  0  0  0  0  0  0  0
    7.1765    2.4795   -0.0710 C   0  0  0  0  0  0  0  0  0  0  0  0
    7.8892    2.8943    1.1664 C   0  0  0  0  0  0  0  0  0  0  0  0
    9.2357    3.1173    1.0749 N   0  0  0  0  0  0  0  0  0  0  0  0
    7.3102    2.9998    2.2397 O   0  0  0  0  0  0  0  0  0  0  0  0
    5.9622    1.7895    0.0611 C   0  0  0  0  0  0  0  0  0  0  0  0
    3.8861   -0.5230   -0.1386 C   0  0  0  0  0  0  0  0  0  0  0  0
    2.6818   -1.2230   -0.0092 C   0  0  0  0  0  0  0  0  0  0  0  0
   -5.8707   -4.3434   -1.6138 H   0  0  0  0  0  0  0  0  0  0  0  0
   -7.0047   -2.9780   -1.6448 H   0  0  0  0  0  0  0  0  0  0  0  0
   -6.4897   -3.6318   -0.0774 H   0  0  0  0  0  0  0  0  0  0  0  0
   -2.3703   -1.9657    0.5156 H   0  0  0  0  0  0  0  0  0  0  0  0
   -3.9903   -0.2875   -1.4716 H   0  0  0  0  0  0  0  0  0  0  0  0
   -2.4949    0.2535   -0.7560 H   0  0  0  0  0  0  0  0  0  0  0  0
   -6.0320    0.0869   -0.2884 H   0  0  0  0  0  0  0  0  0  0  0  0
   -7.2089    0.9002    1.7196 H   0  0  0  0  0  0  0  0  0  0  0  0
   -5.9556    1.3911    3.7920 H   0  0  0  0  0  0  0  0  0  0  0  0
   -1.9095    2.0340    3.2167 H   0  0  0  0  0  0  0  0  0  0  0  0
   -4.7281    0.5406    5.5410 H   0  0  0  0  0  0  0  0  0  0  0  0
   -3.2691    1.1647    6.1857 H   0  0  0  0  0  0  0  0  0  0  0  0
   -2.2919    0.1920    1.8619 H   0  0  0  0  0  0  0  0  0  0  0  0
   -1.5435   -3.3221   -1.3786 H   0  0  0  0  0  0  0  0  0  0  0  0
   -1.7145   -2.5707   -3.7147 H   0  0  0  0  0  0  0  0  0  0  0  0
   -2.7471   -1.2189   -3.2589 H   0  0  0  0  0  0  0  0  0  0  0  0
   -3.3267   -2.8890   -3.0772 H   0  0  0  0  0  0  0  0  0  0  0  0
   -0.3032   -1.1074   -2.4245 H   0  0  0  0  0  0  0  0  0  0  0  0
    0.7074    0.7879   -1.9265 H   0  0  0  0  0  0  0  0  0  0  0  0
    2.8219    1.9953   -2.1618 H   0  0  0  0  0  0  0  0  0  0  0  0
    5.2344    1.3511   -3.2335 H   0  0  0  0  0  0  0  0  0  0  0  0
    7.3433    2.5997   -3.4684 H   0  0  0  0  0  0  0  0  0  0  0  0
    8.5852    3.3475   -1.4755 H   0  0  0  0  0  0  0  0  0  0  0  0
    9.7855    2.7580    0.3083 H   0  0  0  0  0  0  0  0  0  0  0  0
    9.7124    3.2648    1.9559 H   0  0  0  0  0  0  0  0  0  0  0  0
    5.5750    1.5866    1.0597 H   0  0  0  0  0  0  0  0  0  0  0  0
    4.7662   -0.8981    0.3811 H   0  0  0  0  0  0  0  0  0  0  0  0
    2.6448   -2.1171    0.6109 H   0  0  0  0  0  0  0  0  0  0  0  0
  1  2  1  0
  2  3  1  0
  3  4  2  0
  3  5  1  0
  5  6  1  0
  6  7  1  0
  7  8  2  0
  8  9  1  0
  9 10  2  0
 10 11  1  0
 11 12  1  0
 12 13  2  3
 12 14  1  0
 11 15  2  0
  5 16  1  0
 16 17  1  0
 16 18  1  0
 18 19  1  0
 19 20  2  0
 19 21  1  0
 21 22  2  0
 22 23  1  0
 23 24  2  0
 24 25  1  0
 25 26  2  0
 26 27  1  0
 27 28  2  0
 28 29  1  0
 29 30  1  0
 30 31  1  0
 30 32  2  0
 29 33  2  0
 24 34  1  0
 34 35  2  0
 15  7  1  0
 35 21  1  0
 33 25  1  0
  1 36  1  0
  1 37  1  0
  1 38  1  0
  5 39  1  1
  6 40  1  0
  6 41  1  0
  8 42  1  0
  9 43  1  0
 10 44  1  0
 13 45  1  0
 14 46  1  0
 14 47  1  0
 15 48  1  0
 16 49  1  1
 17 50  1  0
 17 51  1  0
 17 52  1  0
 18 53  1  0
 22 54  1  0
 23 55  1  0
 26 56  1  0
 27 57  1  0
 28 58  1  0
 31 59  1  0
 31 60  1  0
 33 61  1  0
 34 62  1  0
 35 63  1  0
M  END
$$$$
