
     RDKit          3D

101105  0  0  0  0  0  0  0  0999 V2000
  -13.1034   -1.3531   -3.3115 N   0  0  0  0  0  0  0  0  0  0  0  0
  -12.7798   -2.5453   -2.9629 C   0  0  0  0  0  0  0  0  0  0  0  0
  -13.7325   -3.4528   -2.6289 N   0  0  0  0  0  0  0  0  0  0  0  0
  -11.5358   -3.0902   -2.8677 N   0  0  0  0  0  0  0  0  0  0  0  0
  -10.2860   -2.4874   -3.1176 C   0  0  0  0  0  0  0  0  0  0  0  0
  -10.0885   -1.1065   -3.1988 C   0  0  0  0  0  0  0  0  0  0  0  0
   -8.8123   -0.5647   -3.3993 C   0  0  0  0  0  0  0  0  0  0  0  0
   -7.6918   -1.3946   -3.5071 C   0  0  0  0  0  0  0  0  0  0  0  0
   -6.3206   -0.8034   -3.6931 C   0  0  0  0  0  0  0  0  0  0  0  0
   -5.8391   -0.2418   -2.4519 N   0  0  0  0  0  0  0  0  0  0  0  0
   -4.6303    0.3992   -2.4221 C   0  0  0  0  0  0  0  0  0  0  0  0
   -3.9449    0.5554   -3.4280 O   0  0  0  0  0  0  0  0  0  0  0  0
   -4.2515    0.8577   -1.1748 N   0  0  0  0  0  0  0  0  0  0  0  0
   -2.9473    1.5110   -1.0402 C   0  0  0  0  0  0  0  0  0  0  0  0
   -2.3552    1.3473    0.3640 C   0  0  0  0  0  0  0  0  0  0  0  0
   -3.2877    1.7202    1.4297 N   0  0  0  0  0  0  0  0  0  0  0  0
   -2.8943    1.8611    2.7437 C   0  0  0  0  0  0  0  0  0  0  0  0
   -3.6501    2.1713    3.6557 O   0  0  0  0  0  0  0  0  0  0  0  0
   -1.5675    1.6102    2.9055 O   0  0  0  0  0  0  0  0  0  0  0  0
   -1.0336    1.7188    4.2442 C   0  0  1  0  0  0  0  0  0  0  0  0
    0.1339    0.7218    4.3191 C   0  0  0  0  0  0  0  0  0  0  0  0
    1.1444    0.8837    5.4495 C   0  0  0  0  0  0  0  0  0  0  0  0
    2.0002    2.1553    5.4962 C   0  0  0  0  0  0  0  0  0  0  0  0
    2.5175    2.7293    4.1722 C   0  0  1  0  0  0  0  0  0  0  0  0
    3.3286    1.7381    3.5033 O   0  0  0  0  0  0  0  0  0  0  0  0
    4.6354    1.6550    3.8686 C   0  0  0  0  0  0  0  0  0  0  0  0
    5.1563    2.3581    4.7251 O   0  0  0  0  0  0  0  0  0  0  0  0
    5.3089    0.6863    3.1540 N   0  0  0  0  0  0  0  0  0  0  0  0
    6.7386    0.4835    3.3665 C   0  0  0  0  0  0  0  0  0  0  0  0
    7.4739    0.1661    2.0579 C   0  0  0  0  0  0  0  0  0  0  0  0
    6.8597   -0.9305    1.2953 N   0  0  0  0  0  0  0  0  0  0  0  0
    7.4505   -1.5454    0.1988 C   0  0  0  0  0  0  0  0  0  0  0  0
    6.8861   -2.4443   -0.4250 O   0  0  0  0  0  0  0  0  0  0  0  0
    8.8300   -1.0483   -0.1985 C   0  0  0  0  0  0  0  0  0  0  0  0
    9.3672   -1.7345   -1.4546 C   0  0  0  0  0  0  0  0  0  0  0  0
    8.6106   -1.3052   -2.6325 N   0  0  0  0  0  0  0  0  0  0  0  0
    9.0069   -1.7422   -3.9055 C   0  0  0  0  0  0  0  0  0  0  0  0
    8.0872   -1.6467   -4.9544 C   0  0  0  0  0  0  0  0  0  0  0  0
    8.4738   -2.0039   -6.2375 C   0  0  0  0  0  0  0  0  0  0  0  0
    9.7127   -2.4255   -6.5569 N   0  0  0  0  0  0  0  0  0  0  0  0
   10.6015   -2.4712   -5.5449 C   0  0  0  0  0  0  0  0  0  0  0  0
   10.3045   -2.1329   -4.2307 C   0  0  0  0  0  0  0  0  0  0  0  0
    5.5094   -1.3382    1.7010 C   0  0  0  0  0  0  0  0  0  0  0  0
    4.6509   -0.1489    2.1470 C   0  0  0  0  0  0  0  0  0  0  0  0
    1.4793    3.1978    3.1408 C   0  0  0  0  0  0  0  0  0  0  0  0
    0.2468    3.9367    3.6504 C   0  0  0  0  0  0  0  0  0  0  0  0
   -0.7328    3.1883    4.5614 C   0  0  0  0  0  0  0  0  0  0  0  0
   -4.6853    1.9198    1.0580 C   0  0  0  0  0  0  0  0  0  0  0  0
   -5.1449    0.9177   -0.0087 C   0  0  0  0  0  0  0  0  0  0  0  0
   -7.8703   -2.7759   -3.3915 C   0  0  0  0  0  0  0  0  0  0  0  0
   -9.1490   -3.3101   -3.1936 C   0  0  0  0  0  0  0  0  0  0  0  0
  -14.1166   -1.2478   -3.3217 H   0  0  0  0  0  0  0  0  0  0  0  0
  -14.6546   -3.0592   -2.4923 H   0  0  0  0  0  0  0  0  0  0  0  0
  -13.4746   -4.0163   -1.8263 H   0  0  0  0  0  0  0  0  0  0  0  0
  -11.5245   -4.0888   -3.0181 H   0  0  0  0  0  0  0  0  0  0  0  0
  -10.9254   -0.4196   -3.1076 H   0  0  0  0  0  0  0  0  0  0  0  0
   -8.7024    0.5161   -3.4632 H   0  0  0  0  0  0  0  0  0  0  0  0
   -5.6072   -1.5656   -4.0288 H   0  0  0  0  0  0  0  0  0  0  0  0
   -6.3406   -0.0206   -4.4604 H   0  0  0  0  0  0  0  0  0  0  0  0
   -6.0698   -0.7638   -1.6220 H   0  0  0  0  0  0  0  0  0  0  0  0
   -3.1024    2.5740   -1.2623 H   0  0  0  0  0  0  0  0  0  0  0  0
   -2.2465    1.1195   -1.7853 H   0  0  0  0  0  0  0  0  0  0  0  0
   -1.4409    1.9434    0.4584 H   0  0  0  0  0  0  0  0  0  0  0  0
   -2.0876    0.2970    0.5334 H   0  0  0  0  0  0  0  0  0  0  0  0
   -1.7870    1.3706    4.9638 H   0  0  0  0  0  0  0  0  0  0  0  0
   -0.3172   -0.2760    4.4270 H   0  0  0  0  0  0  0  0  0  0  0  0
    0.6539    0.6387    3.3599 H   0  0  0  0  0  0  0  0  0  0  0  0
    1.8290    0.0268    5.3928 H   0  0  0  0  0  0  0  0  0  0  0  0
    0.6262    0.7820    6.4112 H   0  0  0  0  0  0  0  0  0  0  0  0
    1.4908    2.9406    6.0608 H   0  0  0  0  0  0  0  0  0  0  0  0
    2.8695    1.9080    6.1220 H   0  0  0  0  0  0  0  0  0  0  0  0
    3.1343    3.6065    4.4109 H   0  0  0  0  0  0  0  0  0  0  0  0
    6.8365   -0.3576    4.0632 H   0  0  0  0  0  0  0  0  0  0  0  0
    7.1874    1.3606    3.8442 H   0  0  0  0  0  0  0  0  0  0  0  0
    7.4614    1.0473    1.4055 H   0  0  0  0  0  0  0  0  0  0  0  0
    8.5186   -0.0797    2.2718 H   0  0  0  0  0  0  0  0  0  0  0  0
    8.7885    0.0350   -0.3587 H   0  0  0  0  0  0  0  0  0  0  0  0
    9.5156   -1.2606    0.6296 H   0  0  0  0  0  0  0  0  0  0  0  0
   10.4179   -1.4415   -1.5553 H   0  0  0  0  0  0  0  0  0  0  0  0
    9.3219   -2.8251   -1.3527 H   0  0  0  0  0  0  0  0  0  0  0  0
    7.6135   -1.4992   -2.4999 H   0  0  0  0  0  0  0  0  0  0  0  0
    7.0754   -1.2981   -4.7801 H   0  0  0  0  0  0  0  0  0  0  0  0
    7.7733   -1.9503   -7.0654 H   0  0  0  0  0  0  0  0  0  0  0  0
   11.6011   -2.7921   -5.8235 H   0  0  0  0  0  0  0  0  0  0  0  0
   11.0953   -2.1820   -3.4941 H   0  0  0  0  0  0  0  0  0  0  0  0
    5.6344   -2.0413    2.5335 H   0  0  0  0  0  0  0  0  0  0  0  0
    5.0026   -1.8754    0.8931 H   0  0  0  0  0  0  0  0  0  0  0  0
    3.6930   -0.5043    2.5417 H   0  0  0  0  0  0  0  0  0  0  0  0
    4.4388    0.5002    1.2892 H   0  0  0  0  0  0  0  0  0  0  0  0
    2.0074    3.8774    2.4556 H   0  0  0  0  0  0  0  0  0  0  0  0
    1.1800    2.3840    2.4732 H   0  0  0  0  0  0  0  0  0  0  0  0
   -0.3141    4.2727    2.7674 H   0  0  0  0  0  0  0  0  0  0  0  0
    0.5635    4.8538    4.1631 H   0  0  0  0  0  0  0  0  0  0  0  0
   -0.4341    3.2820    5.6084 H   0  0  0  0  0  0  0  0  0  0  0  0
   -1.6763    3.7490    4.5109 H   0  0  0  0  0  0  0  0  0  0  0  0
   -5.3351    1.8555    1.9366 H   0  0  0  0  0  0  0  0  0  0  0  0
   -4.7624    2.9416    0.6673 H   0  0  0  0  0  0  0  0  0  0  0  0
   -5.1652   -0.0919    0.4183 H   0  0  0  0  0  0  0  0  0  0  0  0
   -6.1598    1.1671   -0.3361 H   0  0  0  0  0  0  0  0  0  0  0  0
   -7.0180   -3.4497   -3.4528 H   0  0  0  0  0  0  0  0  0  0  0  0
   -9.2474   -4.3893   -3.1032 H   0  0  0  0  0  0  0  0  0  0  0  0
  1  2  2  3
  2  3  1  0
  2  4  1  0
  4  5  1  0
  5  6  2  0
  6  7  1  0
  7  8  2  0
  8  9  1  0
  9 10  1  0
 10 11  1  0
 11 12  2  0
 11 13  1  0
 13 14  1  0
 14 15  1  0
 15 16  1  0
 16 17  1  0
 17 18  2  0
 17 19  1  0
 19 20  1  0
 20 21  1  0
 21 22  1  0
 22 23  1  0
 23 24  1  0
 24 25  1  0
 25 26  1  0
 26 27  2  0
 26 28  1  0
 28 29  1  0
 29 30  1  0
 30 31  1  0
 31 32  1  0
 32 33  2  0
 32 34  1  0
 34 35  1  0
 35 36  1  0
 36 37  1  0
 37 38  2  0
 38 39  1  0
 39 40  2  0
 40 41  1  0
 41 42  2  0
 31 43  1  0
 43 44  1  0
 24 45  1  0
 45 46  1  0
 46 47  1  0
 16 48  1  0
 48 49  1  0
  8 50  1  0
 50 51  2  0
 51  5  1  0
 49 13  1  0
 47 20  1  0
 44 28  1  0
 42 37  1  0
  1 52  1  0
  3 53  1  0
  3 54  1  0
  4 55  1  0
  6 56  1  0
  7 57  1  0
  9 58  1  0
  9 59  1  0
 10 60  1  0
 14 61  1  0
 14 62  1  0
 15 63  1  0
 15 64  1  0
 20 65  1  1
 21 66  1  0
 21 67  1  0
 22 68  1  0
 22 69  1  0
 23 70  1  0
 23 71  1  0
 24 72  1  1
 29 73  1  0
 29 74  1  0
 30 75  1  0
 30 76  1  0
 34 77  1  0
 34 78  1  0
 35 79  1  0
 35 80  1  0
 36 81  1  0
 38 82  1  0
 39 83  1  0
 41 84  1  0
 42 85  1  0
 43 86  1  0
 43 87  1  0
 44 88  1  0
 44 89  1  0
 45 90  1  0
 45 91  1  0
 46 92  1  0
 46 93  1  0
 47 94  1  0
 47 95  1  0
 48 96  1  0
 48 97  1  0
 49 98  1  0
 49 99  1  0
 50100  1  0
 51101  1  0
M  END
$$$$
