
     RDKit          3D

 50 52  0  0  0  0  0  0  0  0999 V2000
   -1.6108    3.5948   -0.0974 C   0  0  0  0  0  0  0  0  0  0  0  0
   -2.3420    2.3789   -0.0452 O   0  0  0  0  0  0  0  0  0  0  0  0
   -1.6559    1.2092   -0.2621 C   0  0  0  0  0  0  0  0  0  0  0  0
   -0.2995    1.1392   -0.6046 C   0  0  0  0  0  0  0  0  0  0  0  0
    0.3236   -0.1000   -0.8194 C   0  0  0  0  0  0  0  0  0  0  0  0
    1.7912   -0.1769   -1.1730 C   0  0  0  0  0  0  0  0  0  0  0  0
    2.5364   -0.6467   -0.0143 N   0  0  0  0  0  0  0  0  0  0  0  0
    3.9318   -0.6668   -0.0394 C   0  0  0  0  0  0  0  0  0  0  0  0
    4.6186   -0.7989    1.1772 C   0  0  0  0  0  0  0  0  0  0  0  0
    6.0137   -0.8925    1.2224 C   0  0  0  0  0  0  0  0  0  0  0  0
    6.7483   -0.8893    0.0368 C   0  0  0  0  0  0  0  0  0  0  0  0
    8.2313   -0.9824    0.0896 C   0  0  0  0  0  0  0  0  0  0  0  0
    8.9278   -1.6030   -0.8084 N   0  0  0  0  0  0  0  0  0  0  0  0
    8.9190   -0.3925    1.1074 N   0  0  0  0  0  0  0  0  0  0  0  0
    6.0833   -0.7948   -1.1864 C   0  0  0  0  0  0  0  0  0  0  0  0
    4.6858   -0.6996   -1.2190 C   0  0  0  0  0  0  0  0  0  0  0  0
   -0.4270   -1.2721   -0.6711 C   0  0  0  0  0  0  0  0  0  0  0  0
   -1.7802   -1.2128   -0.3306 C   0  0  0  0  0  0  0  0  0  0  0  0
   -2.4042    0.0221   -0.1303 C   0  0  0  0  0  0  0  0  0  0  0  0
   -3.7236    0.1784    0.2144 O   0  0  0  0  0  0  0  0  0  0  0  0
   -4.5623   -0.9741    0.1713 C   0  0  0  0  0  0  0  0  0  0  0  0
   -6.0022   -0.5819    0.4221 C   0  0  0  0  0  0  0  0  0  0  0  0
   -6.5194    0.6321   -0.0542 C   0  0  0  0  0  0  0  0  0  0  0  0
   -7.8603    0.9630    0.1489 C   0  0  0  0  0  0  0  0  0  0  0  0
   -8.7031    0.0799    0.8202 C   0  0  0  0  0  0  0  0  0  0  0  0
   -8.2068   -1.1357    1.2865 C   0  0  0  0  0  0  0  0  0  0  0  0
   -6.8655   -1.4678    1.0845 C   0  0  0  0  0  0  0  0  0  0  0  0
   -0.8150    3.6116    0.6546 H   0  0  0  0  0  0  0  0  0  0  0  0
   -2.3022    4.4112    0.1330 H   0  0  0  0  0  0  0  0  0  0  0  0
   -1.2116    3.7716   -1.1014 H   0  0  0  0  0  0  0  0  0  0  0  0
    0.2958    2.0403   -0.7112 H   0  0  0  0  0  0  0  0  0  0  0  0
    2.1496    0.8106   -1.4892 H   0  0  0  0  0  0  0  0  0  0  0  0
    1.9094   -0.8619   -2.0214 H   0  0  0  0  0  0  0  0  0  0  0  0
    2.1682   -0.2804    0.8606 H   0  0  0  0  0  0  0  0  0  0  0  0
    4.0642   -0.8374    2.1124 H   0  0  0  0  0  0  0  0  0  0  0  0
    6.5128   -0.9985    2.1821 H   0  0  0  0  0  0  0  0  0  0  0  0
    8.3219   -2.0542   -1.4995 H   0  0  0  0  0  0  0  0  0  0  0  0
    8.5536    0.4956    1.4297 H   0  0  0  0  0  0  0  0  0  0  0  0
    9.9111   -0.3509    0.8935 H   0  0  0  0  0  0  0  0  0  0  0  0
    6.6362   -0.7806   -2.1216 H   0  0  0  0  0  0  0  0  0  0  0  0
    4.2051   -0.6520   -2.1916 H   0  0  0  0  0  0  0  0  0  0  0  0
    0.0480   -2.2421   -0.8106 H   0  0  0  0  0  0  0  0  0  0  0  0
   -2.3135   -2.1507   -0.2190 H   0  0  0  0  0  0  0  0  0  0  0  0
   -4.2425   -1.6772    0.9499 H   0  0  0  0  0  0  0  0  0  0  0  0
   -4.5120   -1.4528   -0.8145 H   0  0  0  0  0  0  0  0  0  0  0  0
   -5.8730    1.3317   -0.5816 H   0  0  0  0  0  0  0  0  0  0  0  0
   -8.2448    1.9111   -0.2175 H   0  0  0  0  0  0  0  0  0  0  0  0
   -9.7465    0.3388    0.9785 H   0  0  0  0  0  0  0  0  0  0  0  0
   -8.8648   -1.8264    1.8072 H   0  0  0  0  0  0  0  0  0  0  0  0
   -6.4978   -2.4234    1.4512 H   0  0  0  0  0  0  0  0  0  0  0  0
  1  2  1  0
  2  3  1  0
  3  4  2  0
  4  5  1  0
  5  6  1  0
  6  7  1  0
  7  8  1  0
  8  9  2  0
  9 10  1  0
 10 11  2  0
 11 12  1  0
 12 13  2  3
 12 14  1  0
 11 15  1  0
 15 16  2  0
  5 17  2  0
 17 18  1  0
 18 19  2  0
 19 20  1  0
 20 21  1  0
 21 22  1  0
 22 23  2  0
 23 24  1  0
 24 25  2  0
 25 26  1  0
 26 27  2  0
 19  3  1  0
 27 22  1  0
 16  8  1  0
  1 28  1  0
  1 29  1  0
  1 30  1  0
  4 31  1  0
  6 32  1  0
  6 33  1  0
  7 34  1  0
  9 35  1  0
 10 36  1  0
 13 37  1  0
 14 38  1  0
 14 39  1  0
 15 40  1  0
 16 41  1  0
 17 42  1  0
 18 43  1  0
 21 44  1  0
 21 45  1  0
 23 46  1  0
 24 47  1  0
 25 48  1  0
 26 49  1  0
 27 50  1  0
M  END
$$$$
