
     RDKit          3D

 51 53  0  0  0  0  0  0  0  0999 V2000
    0.6678   -3.4740    2.4124 C   0  0  0  0  0  0  0  0  0  0  0  0
   -0.1313   -2.5779    1.5082 C   0  0  0  0  0  0  0  0  0  0  0  0
   -1.4488   -2.3991    1.7112 C   0  0  0  0  0  0  0  0  0  0  0  0
   -2.2819   -1.6091    0.9657 N   0  0  0  0  0  0  0  0  0  0  0  0
   -1.7513   -0.9394   -0.0184 C   0  0  0  0  0  0  0  0  0  0  0  0
   -2.4970   -0.1093   -0.8394 N   0  0  0  0  0  0  0  0  0  0  0  0
   -3.7636    0.4514   -0.4024 C   0  0  0  0  0  0  0  0  0  0  0  0
   -4.4489    1.1703   -1.5676 C   0  0  0  0  0  0  0  0  0  0  0  0
   -5.7615    1.7899   -1.1578 C   0  0  0  0  0  0  0  0  0  0  0  0
   -5.8122    3.1146   -0.7036 C   0  0  0  0  0  0  0  0  0  0  0  0
   -7.0252    3.6791   -0.3063 C   0  0  0  0  0  0  0  0  0  0  0  0
   -8.1961    2.9248   -0.3552 C   0  0  0  0  0  0  0  0  0  0  0  0
   -8.1553    1.6049   -0.8002 C   0  0  0  0  0  0  0  0  0  0  0  0
   -6.9436    1.0382   -1.1982 C   0  0  0  0  0  0  0  0  0  0  0  0
   -0.2383   -1.0312   -0.3325 C   0  0  0  0  0  0  0  0  0  0  0  0
    0.2088   -0.3352   -1.2400 O   0  0  0  0  0  0  0  0  0  0  0  0
    0.4914   -1.9127    0.4582 N   0  0  0  0  0  0  0  0  0  0  0  0
    1.9232   -1.9939    0.1999 C   0  0  0  0  0  0  0  0  0  0  0  0
    2.7176   -0.9346    0.9732 C   0  0  0  0  0  0  0  0  0  0  0  0
    2.2913   -0.3336    1.9563 O   0  0  0  0  0  0  0  0  0  0  0  0
    3.9992   -0.7602    0.5066 N   0  0  0  0  0  0  0  0  0  0  0  0
    4.8732    0.2505    1.0612 C   0  0  0  0  0  0  0  0  0  0  0  0
    6.2101    0.2795    0.3521 C   0  0  0  0  0  0  0  0  0  0  0  0
    7.2398    1.0739    0.8509 C   0  0  0  0  0  0  0  0  0  0  0  0
    8.4553    1.1001    0.1731 C   0  0  0  0  0  0  0  0  0  0  0  0
    8.6102    0.3410   -0.9807 C   0  0  0  0  0  0  0  0  0  0  0  0
    7.5370   -0.4183   -1.4147 C   0  0  0  0  0  0  0  0  0  0  0  0
    6.3444   -0.4672   -0.7809 N   0  0  0  0  0  0  0  0  0  0  0  0
    1.0743   -4.3229    1.8532 H   0  0  0  0  0  0  0  0  0  0  0  0
    1.4927   -2.9268    2.8789 H   0  0  0  0  0  0  0  0  0  0  0  0
    0.0572   -3.8858    3.2238 H   0  0  0  0  0  0  0  0  0  0  0  0
   -1.9439   -2.9102    2.5342 H   0  0  0  0  0  0  0  0  0  0  0  0
   -1.9121    0.5059   -1.4037 H   0  0  0  0  0  0  0  0  0  0  0  0
   -3.5854    1.1509    0.4231 H   0  0  0  0  0  0  0  0  0  0  0  0
   -4.4182   -0.3440   -0.0260 H   0  0  0  0  0  0  0  0  0  0  0  0
   -4.6176    0.4701   -2.3963 H   0  0  0  0  0  0  0  0  0  0  0  0
   -3.7883    1.9482   -1.9728 H   0  0  0  0  0  0  0  0  0  0  0  0
   -4.9072    3.7161   -0.6557 H   0  0  0  0  0  0  0  0  0  0  0  0
   -7.0565    4.7077    0.0433 H   0  0  0  0  0  0  0  0  0  0  0  0
   -9.1399    3.3649   -0.0448 H   0  0  0  0  0  0  0  0  0  0  0  0
   -9.0674    1.0151   -0.8357 H   0  0  0  0  0  0  0  0  0  0  0  0
   -6.9272    0.0051   -1.5390 H   0  0  0  0  0  0  0  0  0  0  0  0
    2.1026   -1.8456   -0.8720 H   0  0  0  0  0  0  0  0  0  0  0  0
    2.3078   -2.9861    0.4548 H   0  0  0  0  0  0  0  0  0  0  0  0
    4.2906   -1.1336   -0.3919 H   0  0  0  0  0  0  0  0  0  0  0  0
    4.3806    1.2239    0.9601 H   0  0  0  0  0  0  0  0  0  0  0  0
    5.0111    0.0326    2.1261 H   0  0  0  0  0  0  0  0  0  0  0  0
    7.1021    1.6646    1.7512 H   0  0  0  0  0  0  0  0  0  0  0  0
    9.2752    1.7103    0.5418 H   0  0  0  0  0  0  0  0  0  0  0  0
    9.5448    0.3426   -1.5302 H   0  0  0  0  0  0  0  0  0  0  0  0
    7.6106   -1.0254   -2.3126 H   0  0  0  0  0  0  0  0  0  0  0  0
  1  2  1  0
  2  3  2  0
  3  4  1  0
  4  5  2  0
  5  6  1  0
  6  7  1  0
  7  8  1  0
  8  9  1  0
  9 10  2  0
 10 11  1  0
 11 12  2  0
 12 13  1  0
 13 14  2  0
  5 15  1  0
 15 16  2  0
 15 17  1  0
 17 18  1  0
 18 19  1  0
 19 20  2  0
 19 21  1  0
 21 22  1  0
 22 23  1  0
 23 24  2  0
 24 25  1  0
 25 26  2  0
 26 27  1  0
 27 28  2  0
 17  2  1  0
 28 23  1  0
 14  9  1  0
  1 29  1  0
  1 30  1  0
  1 31  1  0
  3 32  1  0
  6 33  1  0
  7 34  1  0
  7 35  1  0
  8 36  1  0
  8 37  1  0
 10 38  1  0
 11 39  1  0
 12 40  1  0
 13 41  1  0
 14 42  1  0
 18 43  1  0
 18 44  1  0
 21 45  1  0
 22 46  1  0
 22 47  1  0
 24 48  1  0
 25 49  1  0
 26 50  1  0
 27 51  1  0
M  END
$$$$
