
     RDKit          3D

 43 46  0  0  0  0  0  0  0  0999 V2000
   -7.3863    0.4018    0.2742 C   0  0  0  0  0  0  0  0  0  0  0  0
   -6.6252    0.1843   -0.9076 O   0  0  0  0  0  0  0  0  0  0  0  0
   -5.2644    0.2486   -0.7896 C   0  0  0  0  0  0  0  0  0  0  0  0
   -4.5675    0.0605   -1.9868 C   0  0  0  0  0  0  0  0  0  0  0  0
   -3.1717    0.1139   -2.0170 C   0  0  0  0  0  0  0  0  0  0  0  0
   -2.4565    0.3482   -0.8365 C   0  0  0  0  0  0  0  0  0  0  0  0
   -0.9828    0.3857   -0.8786 C   0  0  0  0  0  0  0  0  0  0  0  0
   -0.2228   -0.2474   -0.0484 N   0  0  0  0  0  0  0  0  0  0  0  0
    1.1513   -0.0992   -0.2109 C   0  0  0  0  0  0  0  0  0  0  0  0
    2.0211   -0.7416    0.6714 C   0  0  0  0  0  0  0  0  0  0  0  0
    3.4059   -0.5952    0.5412 C   0  0  0  0  0  0  0  0  0  0  0  0
    3.9287    0.1572   -0.5211 C   0  0  0  0  0  0  0  0  0  0  0  0
    3.0604    0.8216   -1.3883 C   0  0  0  0  0  0  0  0  0  0  0  0
    1.6778    0.6842   -1.2255 C   0  0  0  0  0  0  0  0  0  0  0  0
    0.7358    1.3518   -2.1320 C   0  0  0  0  0  0  0  0  0  0  0  0
    1.1416    2.0407   -3.0609 O   0  0  0  0  0  0  0  0  0  0  0  0
   -0.5864    1.1699   -1.9055 O   0  0  0  0  0  0  0  0  0  0  0  0
    5.2615    0.3221   -0.7993 O   0  0  0  0  0  0  0  0  0  0  0  0
    6.0521   -0.8341   -0.5189 C   0  0  0  0  0  0  0  0  0  0  0  0
    6.4828   -0.8625    0.9374 C   0  0  0  0  0  0  0  0  0  0  0  0
    5.3326   -0.5321    1.8728 C   0  0  0  0  0  0  0  0  0  0  0  0
    4.1478   -1.2380    1.5003 O   0  0  0  0  0  0  0  0  0  0  0  0
   -3.1517    0.5149    0.3666 C   0  0  0  0  0  0  0  0  0  0  0  0
   -2.4822    0.8195    1.5240 O   0  0  0  0  0  0  0  0  0  0  0  0
   -2.4526   -0.3080    2.4011 C   0  0  0  0  0  0  0  0  0  0  0  0
   -4.5527    0.4848    0.3872 C   0  0  0  0  0  0  0  0  0  0  0  0
   -7.1739   -0.3648    1.0267 H   0  0  0  0  0  0  0  0  0  0  0  0
   -8.4451    0.3238    0.0090 H   0  0  0  0  0  0  0  0  0  0  0  0
   -7.2160    1.4070    0.6738 H   0  0  0  0  0  0  0  0  0  0  0  0
   -5.1192   -0.1217   -2.9068 H   0  0  0  0  0  0  0  0  0  0  0  0
   -2.6543   -0.0319   -2.9623 H   0  0  0  0  0  0  0  0  0  0  0  0
    1.6145   -1.3432    1.4802 H   0  0  0  0  0  0  0  0  0  0  0  0
    3.4612    1.4261   -2.1990 H   0  0  0  0  0  0  0  0  0  0  0  0
    5.5269   -1.7545   -0.8090 H   0  0  0  0  0  0  0  0  0  0  0  0
    6.9428   -0.7826   -1.1554 H   0  0  0  0  0  0  0  0  0  0  0  0
    6.8831   -1.8577    1.1627 H   0  0  0  0  0  0  0  0  0  0  0  0
    7.2902   -0.1417    1.1100 H   0  0  0  0  0  0  0  0  0  0  0  0
    5.5947   -0.8478    2.8890 H   0  0  0  0  0  0  0  0  0  0  0  0
    5.1494    0.5496    1.9309 H   0  0  0  0  0  0  0  0  0  0  0  0
   -3.4257   -0.4457    2.8837 H   0  0  0  0  0  0  0  0  0  0  0  0
   -2.1550   -1.2254    1.8805 H   0  0  0  0  0  0  0  0  0  0  0  0
   -1.7130   -0.1055    3.1814 H   0  0  0  0  0  0  0  0  0  0  0  0
   -5.0571    0.6645    1.3300 H   0  0  0  0  0  0  0  0  0  0  0  0
  1  2  1  0
  2  3  1  0
  3  4  2  0
  4  5  1  0
  5  6  2  0
  6  7  1  0
  7  8  2  0
  8  9  1  0
  9 10  2  0
 10 11  1  0
 11 12  2  0
 12 13  1  0
 13 14  2  0
 14 15  1  0
 15 16  2  0
 15 17  1  0
 12 18  1  0
 18 19  1  0
 19 20  1  0
 20 21  1  0
 21 22  1  0
  6 23  1  0
 23 24  1  0
 24 25  1  0
 23 26  2  0
 26  3  1  0
 17  7  1  0
 14  9  1  0
 22 11  1  0
  1 27  1  0
  1 28  1  0
  1 29  1  0
  4 30  1  0
  5 31  1  0
 10 32  1  0
 13 33  1  0
 19 34  1  0
 19 35  1  0
 20 36  1  0
 20 37  1  0
 21 38  1  0
 21 39  1  0
 25 40  1  0
 25 41  1  0
 25 42  1  0
 26 43  1  0
M  END
$$$$
