
     RDKit          3D

 57 59  0  0  0  0  0  0  0  0999 V2000
   -3.8369    0.6662    0.5267 C   0  0  0  0  0  0  0  0  0  0  0  0
   -2.5949    1.3709    0.9919 C   0  0  0  0  0  0  0  0  0  0  0  0
   -2.3512    1.3010    2.3257 N   0  0  0  0  0  0  0  0  0  0  0  0
   -1.2623    1.9164    2.8114 C   0  0  0  0  0  0  0  0  0  0  0  0
   -1.0421    1.7986    4.1800 N   0  0  0  0  0  0  0  0  0  0  0  0
   -0.3648    2.5931    2.0054 C   0  0  0  0  0  0  0  0  0  0  0  0
   -0.6086    2.6541    0.6374 C   0  0  0  0  0  0  0  0  0  0  0  0
   -1.7502    2.0462    0.1040 C   0  0  0  0  0  0  0  0  0  0  0  0
   -1.9958    2.0901   -1.3767 C   0  0  0  0  0  0  0  0  0  0  0  0
   -1.4684    0.9125   -2.0214 N   0  0  0  0  0  0  0  0  0  0  0  0
   -1.5643    0.7396   -3.3816 C   0  0  0  0  0  0  0  0  0  0  0  0
   -2.0426    1.5965   -4.1221 O   0  0  0  0  0  0  0  0  0  0  0  0
   -1.0221   -0.5859   -3.9311 C   0  0  0  0  0  0  0  0  0  0  0  0
   -0.5962   -1.5495   -2.9053 N   0  0  0  0  0  0  0  0  0  0  0  0
   -1.5001   -2.4480   -2.3157 C   0  0  0  0  0  0  0  0  0  0  0  0
   -2.9516   -2.4283   -2.7166 C   0  0  0  0  0  0  0  0  0  0  0  0
   -1.0675   -3.3207   -1.3858 C   0  0  0  0  0  0  0  0  0  0  0  0
    0.3186   -3.3817   -0.9949 C   0  0  0  0  0  0  0  0  0  0  0  0
    1.1870   -2.5220   -1.5285 C   0  0  0  0  0  0  0  0  0  0  0  0
    2.5650   -2.6286   -1.1882 N   0  0  0  0  0  0  0  0  0  0  0  0
    2.9876   -2.0879    0.3652 S   0  0  0  0  0  0  0  0  0  0  0  0
    4.4350   -2.0250    0.3477 O   0  0  0  0  0  0  0  0  0  0  0  0
    2.2799   -2.9049    1.3288 O   0  0  0  0  0  0  0  0  0  0  0  0
    2.3370   -0.4028    0.4051 C   0  0  0  0  0  0  0  0  0  0  0  0
    2.7743    0.2633    1.6848 C   0  0  0  0  0  0  0  0  0  0  0  0
    3.9288    1.0598    1.7162 C   0  0  0  0  0  0  0  0  0  0  0  0
    4.3270    1.6833    2.9012 C   0  0  0  0  0  0  0  0  0  0  0  0
    3.5753    1.5128    4.0613 C   0  0  0  0  0  0  0  0  0  0  0  0
    4.0573    2.2946    5.5159 Cl  0  0  0  0  0  0  0  0  0  0  0  0
    2.4333    0.7176    4.0479 C   0  0  0  0  0  0  0  0  0  0  0  0
    2.0352    0.0921    2.8644 C   0  0  0  0  0  0  0  0  0  0  0  0
    0.7567   -1.5190   -2.5472 C   0  0  0  0  0  0  0  0  0  0  0  0
    1.5867   -0.7176   -2.9734 O   0  0  0  0  0  0  0  0  0  0  0  0
   -3.5894   -0.1025   -0.2114 H   0  0  0  0  0  0  0  0  0  0  0  0
   -4.5412    1.3810    0.0907 H   0  0  0  0  0  0  0  0  0  0  0  0
   -4.3395    0.1718    1.3649 H   0  0  0  0  0  0  0  0  0  0  0  0
   -1.8487    1.3166    4.5692 H   0  0  0  0  0  0  0  0  0  0  0  0
   -0.8973    2.7031    4.6135 H   0  0  0  0  0  0  0  0  0  0  0  0
    0.5221    3.0524    2.4285 H   0  0  0  0  0  0  0  0  0  0  0  0
    0.0961    3.1752   -0.0067 H   0  0  0  0  0  0  0  0  0  0  0  0
   -1.5208    2.9714   -1.8250 H   0  0  0  0  0  0  0  0  0  0  0  0
   -3.0643    2.1717   -1.6047 H   0  0  0  0  0  0  0  0  0  0  0  0
   -1.1827    0.1241   -1.4552 H   0  0  0  0  0  0  0  0  0  0  0  0
   -0.1699   -0.3379   -4.5745 H   0  0  0  0  0  0  0  0  0  0  0  0
   -1.7842   -1.0380   -4.5730 H   0  0  0  0  0  0  0  0  0  0  0  0
   -3.3855   -1.4341   -2.5728 H   0  0  0  0  0  0  0  0  0  0  0  0
   -3.0675   -2.7214   -3.7649 H   0  0  0  0  0  0  0  0  0  0  0  0
   -3.5484   -3.1265   -2.1189 H   0  0  0  0  0  0  0  0  0  0  0  0
   -1.7421   -4.0283   -0.9096 H   0  0  0  0  0  0  0  0  0  0  0  0
    0.6202   -4.1480   -0.2868 H   0  0  0  0  0  0  0  0  0  0  0  0
    3.1679   -2.1553   -1.8717 H   0  0  0  0  0  0  0  0  0  0  0  0
    2.7280    0.1319   -0.4657 H   0  0  0  0  0  0  0  0  0  0  0  0
    1.2455   -0.4414    0.3481 H   0  0  0  0  0  0  0  0  0  0  0  0
    4.5342    1.1947    0.8214 H   0  0  0  0  0  0  0  0  0  0  0  0
    5.2251    2.2952    2.9128 H   0  0  0  0  0  0  0  0  0  0  0  0
    1.8412    0.5818    4.9495 H   0  0  0  0  0  0  0  0  0  0  0  0
    1.1364   -0.5240    2.8755 H   0  0  0  0  0  0  0  0  0  0  0  0
  1  2  1  0
  2  3  2  0
  3  4  1  0
  4  5  1  0
  4  6  2  0
  6  7  1  0
  7  8  2  0
  8  9  1  0
  9 10  1  0
 10 11  1  0
 11 12  2  0
 11 13  1  0
 13 14  1  0
 14 15  1  0
 15 16  1  0
 15 17  2  0
 17 18  1  0
 18 19  2  0
 19 20  1  0
 20 21  1  0
 21 22  2  0
 21 23  2  0
 21 24  1  0
 24 25  1  0
 25 26  2  0
 26 27  1  0
 27 28  2  0
 28 29  1  0
 28 30  1  0
 30 31  2  0
 19 32  1  0
 32 33  2  0
  8  2  1  0
 32 14  1  0
 31 25  1  0
  1 34  1  0
  1 35  1  0
  1 36  1  0
  5 37  1  0
  5 38  1  0
  6 39  1  0
  7 40  1  0
  9 41  1  0
  9 42  1  0
 10 43  1  0
 13 44  1  0
 13 45  1  0
 16 46  1  0
 16 47  1  0
 16 48  1  0
 17 49  1  0
 18 50  1  0
 20 51  1  0
 24 52  1  0
 24 53  1  0
 26 54  1  0
 27 55  1  0
 30 56  1  0
 31 57  1  0
M  END
$$$$
