
     RDKit          3D

 60 62  0  0  0  0  0  0  0  0999 V2000
   -4.5780    5.1026   -0.8524 C   0  0  0  0  0  0  0  0  0  0  0  0
   -4.5974    3.7351   -0.4400 O   0  0  0  0  0  0  0  0  0  0  0  0
   -3.8201    3.4749    0.6468 C   0  0  0  0  0  0  0  0  0  0  0  0
   -3.1430    4.2986    1.2460 O   0  0  0  0  0  0  0  0  0  0  0  0
   -3.8986    2.0164    1.0158 C   0  0  0  0  0  0  0  0  0  0  0  0
   -3.1377    1.1326    0.0144 C   0  0  0  0  0  0  0  0  0  0  0  0
   -1.6088    1.3419    0.1222 C   0  0  0  0  0  0  0  0  0  0  0  0
   -0.8257    0.5710   -0.9488 C   0  0  0  0  0  0  0  0  0  0  0  0
    0.6564    0.8363   -0.8450 C   0  0  0  0  0  0  0  0  0  0  0  0
    1.4583    0.0513   -0.0053 C   0  0  0  0  0  0  0  0  0  0  0  0
    2.8270    0.3041    0.1034 C   0  0  0  0  0  0  0  0  0  0  0  0
    3.3986    1.3501   -0.6171 C   0  0  0  0  0  0  0  0  0  0  0  0
    4.7980    1.5808   -0.5304 N   0  0  0  0  0  0  0  0  0  0  0  0
    5.8005    0.7885   -1.6379 S   0  0  0  0  0  0  0  0  0  0  0  0
    7.0982    1.4221   -1.5220 O   0  0  0  0  0  0  0  0  0  0  0  0
    5.1336    0.6990   -2.9192 O   0  0  0  0  0  0  0  0  0  0  0  0
    5.9419   -0.8379   -0.9433 C   0  0  0  0  0  0  0  0  0  0  0  0
    6.8104   -1.0523    0.1313 C   0  0  0  0  0  0  0  0  0  0  0  0
    6.9305   -2.3330    0.6703 C   0  0  0  0  0  0  0  0  0  0  0  0
    6.1935   -3.3897    0.1318 C   0  0  0  0  0  0  0  0  0  0  0  0
    5.3375   -3.1725   -0.9497 C   0  0  0  0  0  0  0  0  0  0  0  0
    5.2122   -1.8951   -1.4953 C   0  0  0  0  0  0  0  0  0  0  0  0
    2.6132    2.1372   -1.4567 C   0  0  0  0  0  0  0  0  0  0  0  0
    1.2443    1.8840   -1.5664 C   0  0  0  0  0  0  0  0  0  0  0  0
   -3.5403   -0.3231    0.2127 C   0  0  0  0  0  0  0  0  0  0  0  0
   -4.2567   -0.9896   -0.7937 C   0  0  0  0  0  0  0  0  0  0  0  0
   -4.6291   -2.3271   -0.6411 C   0  0  0  0  0  0  0  0  0  0  0  0
   -4.2926   -3.0200    0.5210 C   0  0  0  0  0  0  0  0  0  0  0  0
   -3.5872   -2.3677    1.5342 C   0  0  0  0  0  0  0  0  0  0  0  0
   -3.2194   -3.0927    2.7774 C   0  0  0  0  0  0  0  0  0  0  0  0
   -3.3557   -2.5572    3.9487 N   0  0  0  0  0  0  0  0  0  0  0  0
   -2.7216   -4.3568    2.7252 N   0  0  0  0  0  0  0  0  0  0  0  0
   -3.2146   -1.0259    1.3841 C   0  0  0  0  0  0  0  0  0  0  0  0
   -3.5659    5.4000   -1.1442 H   0  0  0  0  0  0  0  0  0  0  0  0
   -5.2327    5.2031   -1.7225 H   0  0  0  0  0  0  0  0  0  0  0  0
   -4.9588    5.7490   -0.0556 H   0  0  0  0  0  0  0  0  0  0  0  0
   -3.5053    1.8987    2.0332 H   0  0  0  0  0  0  0  0  0  0  0  0
   -4.9612    1.7452    1.0675 H   0  0  0  0  0  0  0  0  0  0  0  0
   -3.4294    1.4342   -1.0012 H   0  0  0  0  0  0  0  0  0  0  0  0
   -1.2500    1.0592    1.1202 H   0  0  0  0  0  0  0  0  0  0  0  0
   -1.3840    2.4109    0.0141 H   0  0  0  0  0  0  0  0  0  0  0  0
   -0.9969   -0.5085   -0.8613 H   0  0  0  0  0  0  0  0  0  0  0  0
   -1.1775    0.8535   -1.9491 H   0  0  0  0  0  0  0  0  0  0  0  0
    1.0210   -0.7625    0.5696 H   0  0  0  0  0  0  0  0  0  0  0  0
    3.4339   -0.3119    0.7612 H   0  0  0  0  0  0  0  0  0  0  0  0
    5.1060    2.5419   -0.3901 H   0  0  0  0  0  0  0  0  0  0  0  0
    7.3907   -0.2322    0.5479 H   0  0  0  0  0  0  0  0  0  0  0  0
    7.6017   -2.5100    1.5073 H   0  0  0  0  0  0  0  0  0  0  0  0
    6.2911   -4.3876    0.5530 H   0  0  0  0  0  0  0  0  0  0  0  0
    4.7709   -4.0003   -1.3692 H   0  0  0  0  0  0  0  0  0  0  0  0
    4.5457   -1.7307   -2.3393 H   0  0  0  0  0  0  0  0  0  0  0  0
    3.0573    2.9380   -2.0411 H   0  0  0  0  0  0  0  0  0  0  0  0
    0.6412    2.5055   -2.2245 H   0  0  0  0  0  0  0  0  0  0  0  0
   -4.5306   -0.4714   -1.7113 H   0  0  0  0  0  0  0  0  0  0  0  0
   -5.1861   -2.8272   -1.4300 H   0  0  0  0  0  0  0  0  0  0  0  0
   -4.6052   -4.0534    0.6345 H   0  0  0  0  0  0  0  0  0  0  0  0
   -3.7627   -1.6197    3.8791 H   0  0  0  0  0  0  0  0  0  0  0  0
   -2.9576   -4.9502    1.9428 H   0  0  0  0  0  0  0  0  0  0  0  0
   -2.7364   -4.8190    3.6283 H   0  0  0  0  0  0  0  0  0  0  0  0
   -2.6466   -0.5407    2.1751 H   0  0  0  0  0  0  0  0  0  0  0  0
  1  2  1  0
  2  3  1  0
  3  4  2  0
  3  5  1  0
  5  6  1  0
  6  7  1  0
  7  8  1  0
  8  9  1  0
  9 10  2  0
 10 11  1  0
 11 12  2  0
 12 13  1  0
 13 14  1  0
 14 15  2  0
 14 16  2  0
 14 17  1  0
 17 18  2  0
 18 19  1  0
 19 20  2  0
 20 21  1  0
 21 22  2  0
 12 23  1  0
 23 24  2  0
  6 25  1  0
 25 26  2  0
 26 27  1  0
 27 28  2  0
 28 29  1  0
 29 30  1  0
 30 31  2  3
 30 32  1  0
 29 33  2  0
 24  9  1  0
 33 25  1  0
 22 17  1  0
  1 34  1  0
  1 35  1  0
  1 36  1  0
  5 37  1  0
  5 38  1  0
  6 39  1  0
  7 40  1  0
  7 41  1  0
  8 42  1  0
  8 43  1  0
 10 44  1  0
 11 45  1  0
 13 46  1  0
 18 47  1  0
 19 48  1  0
 20 49  1  0
 21 50  1  0
 22 51  1  0
 23 52  1  0
 24 53  1  0
 26 54  1  0
 27 55  1  0
 28 56  1  0
 31 57  1  0
 32 58  1  0
 32 59  1  0
 33 60  1  0
M  END
$$$$
