
     RDKit          3D

 91 94  0  0  0  0  0  0  0  0999 V2000
   -3.5992    7.7099   -2.6621 C   0  0  0  0  0  0  0  0  0  0  0  0
   -2.4202    6.9402   -2.4671 O   0  0  0  0  0  0  0  0  0  0  0  0
   -2.5759    5.7025   -1.9104 C   0  0  0  0  0  0  0  0  0  0  0  0
   -1.3968    4.9897   -1.7139 C   0  0  0  0  0  0  0  0  0  0  0  0
   -1.4152    3.7053   -1.1518 C   0  0  0  0  0  0  0  0  0  0  0  0
   -2.6166    3.0945   -0.7666 C   0  0  0  0  0  0  0  0  0  0  0  0
   -2.6380    1.7923   -0.1904 N   0  0  0  0  0  0  0  0  0  0  0  0
   -3.7315    1.1857    0.4284 C   0  0  0  0  0  0  0  0  0  0  0  0
   -4.8110    1.6816    0.7233 O   0  0  0  0  0  0  0  0  0  0  0  0
   -3.3629   -0.1397    0.7314 N   0  0  0  0  0  0  0  0  0  0  0  0
   -1.9615   -0.2003    0.6180 N   0  0  0  0  0  0  0  0  0  0  0  0
   -1.5743    0.8956   -0.1708 C   0  0  0  0  0  0  0  0  0  0  0  0
   -0.5152    0.9373   -0.7840 O   0  0  0  0  0  0  0  0  0  0  0  0
   -1.3577   -1.5042    0.4248 C   0  0  0  0  0  0  0  0  0  0  0  0
    0.1119   -1.4314    0.9126 C   0  0  0  0  0  0  0  0  0  0  0  0
    0.4414   -1.0045    2.0190 O   0  0  0  0  0  0  0  0  0  0  0  0
    1.0348   -1.9240    0.0111 N   0  0  0  0  0  0  0  0  0  0  0  0
    2.4681   -1.9434    0.3064 C   0  0  0  0  0  0  0  0  0  0  0  0
    2.8294   -3.1286    1.2153 C   0  0  0  0  0  0  0  0  0  0  0  0
    2.5304   -4.4992    0.5893 C   0  0  0  0  0  0  0  0  0  0  0  0
    2.7410   -5.6648    1.5639 C   0  0  0  0  0  0  0  0  0  0  0  0
    1.7317   -5.7352    2.7134 C   0  0  0  0  0  0  0  0  0  0  0  0
    0.3630   -5.8898    2.2283 N   0  0  0  0  0  0  0  0  0  0  0  0
    3.2246   -1.9775   -1.0144 C   0  0  0  0  0  0  0  0  0  0  0  0
    2.7330   -2.3238   -2.0888 O   0  0  0  0  0  0  0  0  0  0  0  0
    4.6933   -1.5564   -0.9702 C   0  0  0  0  0  0  0  0  0  0  0  0
    5.2232   -1.2500    0.0854 O   0  0  0  0  0  0  0  0  0  0  0  0
    5.3003   -1.5614   -2.2084 N   0  0  0  0  0  0  0  0  0  0  0  0
    6.5983   -0.9600   -2.4333 C   0  0  0  0  0  0  0  0  0  0  0  0
    6.5041    0.3979   -3.1437 C   0  0  0  0  0  0  0  0  0  0  0  0
    5.6395    1.4277   -2.4515 C   0  0  0  0  0  0  0  0  0  0  0  0
    5.8808    1.8064   -1.1242 C   0  0  0  0  0  0  0  0  0  0  0  0
    5.0668    2.7521   -0.4897 C   0  0  0  0  0  0  0  0  0  0  0  0
    4.0115    3.3527   -1.1845 C   0  0  0  0  0  0  0  0  0  0  0  0
    3.1148    4.3712   -0.5703 C   0  0  0  0  0  0  0  0  0  0  0  0
    3.5105    4.9578    0.5996 N   0  0  0  0  0  0  0  0  0  0  0  0
    2.0656    4.7097   -1.1047 O   0  0  0  0  0  0  0  0  0  0  0  0
    3.7687    2.9786   -2.5113 C   0  0  0  0  0  0  0  0  0  0  0  0
    4.5774    2.0284   -3.1403 C   0  0  0  0  0  0  0  0  0  0  0  0
   -2.0664   -2.5193    1.2845 C   0  0  0  0  0  0  0  0  0  0  0  0
   -3.2266   -2.2632    1.9128 C   0  0  0  0  0  0  0  0  0  0  0  0
   -4.0018   -0.9676    1.7613 C   0  0  0  0  0  0  0  0  0  0  0  0
   -5.4759   -1.2645    1.3865 C   0  0  0  0  0  0  0  0  0  0  0  0
   -6.2984   -2.0702    2.4167 C   0  0  0  0  0  0  0  0  0  0  0  0
   -6.3441   -1.3911    3.7857 C   0  0  0  0  0  0  0  0  0  0  0  0
   -7.7241   -2.2711    1.8924 C   0  0  0  0  0  0  0  0  0  0  0  0
   -3.7955    3.8294   -0.9696 C   0  0  0  0  0  0  0  0  0  0  0  0
   -3.7787    5.1150   -1.5353 C   0  0  0  0  0  0  0  0  0  0  0  0
   -4.0963    7.9201   -1.7093 H   0  0  0  0  0  0  0  0  0  0  0  0
   -4.2804    7.2174   -3.3638 H   0  0  0  0  0  0  0  0  0  0  0  0
   -3.3043    8.6677   -3.1017 H   0  0  0  0  0  0  0  0  0  0  0  0
   -0.4404    5.4318   -1.9889 H   0  0  0  0  0  0  0  0  0  0  0  0
   -0.4495    3.2260   -1.0090 H   0  0  0  0  0  0  0  0  0  0  0  0
   -1.4039   -1.7791   -0.6345 H   0  0  0  0  0  0  0  0  0  0  0  0
    0.7584   -2.1106   -0.9487 H   0  0  0  0  0  0  0  0  0  0  0  0
    2.7057   -0.9997    0.8116 H   0  0  0  0  0  0  0  0  0  0  0  0
    2.2774   -3.0238    2.1554 H   0  0  0  0  0  0  0  0  0  0  0  0
    3.8939   -3.0878    1.4745 H   0  0  0  0  0  0  0  0  0  0  0  0
    3.1997   -4.6507   -0.2664 H   0  0  0  0  0  0  0  0  0  0  0  0
    1.5098   -4.5305    0.1927 H   0  0  0  0  0  0  0  0  0  0  0  0
    2.6958   -6.6026    0.9951 H   0  0  0  0  0  0  0  0  0  0  0  0
    3.7529   -5.6076    1.9834 H   0  0  0  0  0  0  0  0  0  0  0  0
    1.9788   -6.5906    3.3523 H   0  0  0  0  0  0  0  0  0  0  0  0
    1.7944   -4.8414    3.3411 H   0  0  0  0  0  0  0  0  0  0  0  0
    0.2864   -6.7645    1.7099 H   0  0  0  0  0  0  0  0  0  0  0  0
   -0.2616   -5.9810    3.0294 H   0  0  0  0  0  0  0  0  0  0  0  0
    4.7029   -1.7872   -3.0005 H   0  0  0  0  0  0  0  0  0  0  0  0
    7.1662   -1.6562   -3.0596 H   0  0  0  0  0  0  0  0  0  0  0  0
    7.1307   -0.8628   -1.4812 H   0  0  0  0  0  0  0  0  0  0  0  0
    6.1207    0.2274   -4.1582 H   0  0  0  0  0  0  0  0  0  0  0  0
    7.5113    0.8158   -3.2632 H   0  0  0  0  0  0  0  0  0  0  0  0
    6.6909    1.3500   -0.5582 H   0  0  0  0  0  0  0  0  0  0  0  0
    5.2627    2.9811    0.5526 H   0  0  0  0  0  0  0  0  0  0  0  0
    4.4495    4.8978    0.9610 H   0  0  0  0  0  0  0  0  0  0  0  0
    2.9249    5.7110    0.9374 H   0  0  0  0  0  0  0  0  0  0  0  0
    2.9432    3.4269   -3.0619 H   0  0  0  0  0  0  0  0  0  0  0  0
    4.3615    1.7600   -4.1724 H   0  0  0  0  0  0  0  0  0  0  0  0
   -1.5688   -3.4750    1.4385 H   0  0  0  0  0  0  0  0  0  0  0  0
   -3.6296   -3.0200    2.5792 H   0  0  0  0  0  0  0  0  0  0  0  0
   -3.9612   -0.3995    2.6972 H   0  0  0  0  0  0  0  0  0  0  0  0
   -6.0067   -0.3231    1.2066 H   0  0  0  0  0  0  0  0  0  0  0  0
   -5.4952   -1.7976    0.4251 H   0  0  0  0  0  0  0  0  0  0  0  0
   -5.8591   -3.0665    2.5395 H   0  0  0  0  0  0  0  0  0  0  0  0
   -6.7199   -0.3654    3.7077 H   0  0  0  0  0  0  0  0  0  0  0  0
   -7.0003   -1.9399    4.4699 H   0  0  0  0  0  0  0  0  0  0  0  0
   -5.3525   -1.3581    4.2471 H   0  0  0  0  0  0  0  0  0  0  0  0
   -8.3122   -2.8792    2.5880 H   0  0  0  0  0  0  0  0  0  0  0  0
   -8.2393   -1.3133    1.7614 H   0  0  0  0  0  0  0  0  0  0  0  0
   -7.7141   -2.7866    0.9262 H   0  0  0  0  0  0  0  0  0  0  0  0
   -4.7702    3.4251   -0.7123 H   0  0  0  0  0  0  0  0  0  0  0  0
   -4.7290    5.6220   -1.6659 H   0  0  0  0  0  0  0  0  0  0  0  0
  1  2  1  0
  2  3  1  0
  3  4  2  0
  4  5  1  0
  5  6  2  0
  6  7  1  0
  7  8  1  0
  8  9  2  0
  8 10  1  0
 10 11  1  0
 11 12  1  0
 12 13  2  0
 11 14  1  0
 14 15  1  0
 15 16  2  0
 15 17  1  0
 17 18  1  0
 18 19  1  0
 19 20  1  0
 20 21  1  0
 21 22  1  0
 22 23  1  0
 18 24  1  0
 24 25  2  0
 24 26  1  0
 26 27  2  0
 26 28  1  0
 28 29  1  0
 29 30  1  0
 30 31  1  0
 31 32  2  0
 32 33  1  0
 33 34  2  0
 34 35  1  0
 35 36  1  0
 35 37  2  0
 34 38  1  0
 38 39  2  0
 14 40  1  0
 40 41  2  0
 41 42  1  0
 42 43  1  0
 43 44  1  0
 44 45  1  0
 44 46  1  0
  6 47  1  0
 47 48  2  0
 48  3  1  0
 12  7  1  0
 39 31  1  0
 42 10  1  0
  1 49  1  0
  1 50  1  0
  1 51  1  0
  4 52  1  0
  5 53  1  0
 14 54  1  0
 17 55  1  0
 18 56  1  0
 19 57  1  0
 19 58  1  0
 20 59  1  0
 20 60  1  0
 21 61  1  0
 21 62  1  0
 22 63  1  0
 22 64  1  0
 23 65  1  0
 23 66  1  0
 28 67  1  0
 29 68  1  0
 29 69  1  0
 30 70  1  0
 30 71  1  0
 32 72  1  0
 33 73  1  0
 36 74  1  0
 36 75  1  0
 38 76  1  0
 39 77  1  0
 40 78  1  0
 41 79  1  0
 42 80  1  0
 43 81  1  0
 43 82  1  0
 44 83  1  0
 45 84  1  0
 45 85  1  0
 45 86  1  0
 46 87  1  0
 46 88  1  0
 46 89  1  0
 47 90  1  0
 48 91  1  0
M  END
$$$$
