
     RDKit          3D

 63 67  0  0  0  0  0  0  0  0999 V2000
    4.1195   -1.8019    3.5309 C   0  0  0  0  0  0  0  0  0  0  0  0
    3.3677   -2.9882    2.4383 S   0  0  0  0  0  0  0  0  0  0  0  0
    4.3891   -3.9152    2.0083 O   0  0  0  0  0  0  0  0  0  0  0  0
    2.1177   -3.4330    3.0089 O   0  0  0  0  0  0  0  0  0  0  0  0
    3.0218   -2.0319    1.0995 N   0  0  0  0  0  0  0  0  0  0  0  0
    1.6955   -1.3625    1.0562 C   0  0  0  0  0  0  0  0  0  0  0  0
    1.5855   -0.4123   -0.1516 C   0  0  0  0  0  0  0  0  0  0  0  0
    0.2101    0.2690   -0.0907 C   0  0  0  0  0  0  0  0  0  0  0  0
    0.0733    1.3609    0.4581 O   0  0  0  0  0  0  0  0  0  0  0  0
   -0.8040   -0.4948   -0.6204 N   0  0  0  0  0  0  0  0  0  0  0  0
   -2.1704   -0.2252   -0.6619 C   0  0  0  0  0  0  0  0  0  0  0  0
   -2.7708    0.8755   -0.0706 C   0  0  0  0  0  0  0  0  0  0  0  0
   -4.1554    1.0276   -0.1779 C   0  0  0  0  0  0  0  0  0  0  0  0
   -4.9167    0.0762   -0.8591 C   0  0  0  0  0  0  0  0  0  0  0  0
   -6.3701    0.2085   -1.0078 C   0  0  0  0  0  0  0  0  0  0  0  0
   -6.8795    0.6226   -2.2544 C   0  0  0  0  0  0  0  0  0  0  0  0
   -8.2508    0.7864   -2.4621 C   0  0  0  0  0  0  0  0  0  0  0  0
   -9.1456    0.5411   -1.4262 C   0  0  0  0  0  0  0  0  0  0  0  0
   -8.6718    0.1283   -0.1818 C   0  0  0  0  0  0  0  0  0  0  0  0
   -7.2938   -0.0395    0.0282 C   0  0  0  0  0  0  0  0  0  0  0  0
   -6.7182   -0.5995    1.6093 S   0  0  0  0  0  0  0  0  0  0  0  0
   -8.1052   -1.0839    2.4341 N   0  0  0  0  0  0  0  0  0  0  0  0
   -5.9672   -1.8193    1.4292 O   0  0  0  0  0  0  0  0  0  0  0  0
   -6.2219    0.5393    2.3455 O   0  0  0  0  0  0  0  0  0  0  0  0
   -4.2167   -0.9928   -1.4125 C   0  0  0  0  0  0  0  0  0  0  0  0
   -2.8732   -1.1577   -1.3355 N   0  0  0  0  0  0  0  0  0  0  0  0
    2.6998    0.6149   -0.2400 C   0  0  0  0  0  0  0  0  0  0  0  0
    3.5657   -0.0694   -1.2415 C   0  0  0  0  0  0  0  0  0  0  0  0
    4.9590    0.3648   -1.5011 C   0  0  0  0  0  0  0  0  0  0  0  0
    5.7740   -0.4386   -2.3159 C   0  0  0  0  0  0  0  0  0  0  0  0
    7.1030   -0.0915   -2.5904 C   0  0  0  0  0  0  0  0  0  0  0  0
    7.5595    1.0902   -2.0157 C   0  0  0  0  0  0  0  0  0  0  0  0
    8.8059    1.6162   -2.1427 O   0  0  0  0  0  0  0  0  0  0  0  0
    8.8815    2.8013   -1.4288 N   0  0  0  0  0  0  0  0  0  0  0  0
    7.6762    2.9764   -0.8833 C   0  0  0  0  0  0  0  0  0  0  0  0
    7.3371    4.0317   -0.1160 N   0  0  0  0  0  0  0  0  0  0  0  0
    6.7919    1.9178   -1.2160 C   0  0  0  0  0  0  0  0  0  0  0  0
    5.4574    1.5560   -0.9435 C   0  0  0  0  0  0  0  0  0  0  0  0
    3.0035   -1.0587   -1.8619 N   0  0  0  0  0  0  0  0  0  0  0  0
    1.6855   -1.1756   -1.3652 O   0  0  0  0  0  0  0  0  0  0  0  0
    3.3883   -1.0299    3.7767 H   0  0  0  0  0  0  0  0  0  0  0  0
    4.4238   -2.3271    4.4388 H   0  0  0  0  0  0  0  0  0  0  0  0
    4.9946   -1.3725    3.0394 H   0  0  0  0  0  0  0  0  0  0  0  0
    3.2747   -2.5181    0.2289 H   0  0  0  0  0  0  0  0  0  0  0  0
    0.9289   -2.1427    0.9745 H   0  0  0  0  0  0  0  0  0  0  0  0
    1.5366   -0.8069    1.9873 H   0  0  0  0  0  0  0  0  0  0  0  0
   -0.5643   -1.3366   -1.1342 H   0  0  0  0  0  0  0  0  0  0  0  0
   -2.2068    1.6208    0.4765 H   0  0  0  0  0  0  0  0  0  0  0  0
   -4.6300    1.8916    0.2835 H   0  0  0  0  0  0  0  0  0  0  0  0
   -6.1986    0.8315   -3.0795 H   0  0  0  0  0  0  0  0  0  0  0  0
   -8.6175    1.1099   -3.4336 H   0  0  0  0  0  0  0  0  0  0  0  0
  -10.2134    0.6707   -1.5871 H   0  0  0  0  0  0  0  0  0  0  0  0
   -9.3903   -0.0577    0.6122 H   0  0  0  0  0  0  0  0  0  0  0  0
   -8.2048   -0.5155    3.2768 H   0  0  0  0  0  0  0  0  0  0  0  0
   -8.0383   -2.0849    2.6281 H   0  0  0  0  0  0  0  0  0  0  0  0
   -4.7354   -1.7815   -1.9528 H   0  0  0  0  0  0  0  0  0  0  0  0
    2.3729    1.5702   -0.6645 H   0  0  0  0  0  0  0  0  0  0  0  0
    3.2038    0.7883    0.7141 H   0  0  0  0  0  0  0  0  0  0  0  0
    5.3786   -1.3584   -2.7471 H   0  0  0  0  0  0  0  0  0  0  0  0
    7.7425   -0.7064   -3.2128 H   0  0  0  0  0  0  0  0  0  0  0  0
    7.9850    4.8144   -0.1311 H   0  0  0  0  0  0  0  0  0  0  0  0
    6.3701    4.3284   -0.0637 H   0  0  0  0  0  0  0  0  0  0  0  0
    4.8508    2.1993   -0.3168 H   0  0  0  0  0  0  0  0  0  0  0  0
  1  2  1  0
  2  3  2  0
  2  4  2  0
  2  5  1  0
  5  6  1  0
  6  7  1  0
  7  8  1  0
  8  9  2  0
  8 10  1  0
 10 11  1  0
 11 12  2  0
 12 13  1  0
 13 14  2  0
 14 15  1  0
 15 16  2  0
 16 17  1  0
 17 18  2  0
 18 19  1  0
 19 20  2  0
 20 21  1  0
 21 22  1  0
 21 23  2  0
 21 24  2  0
 14 25  1  0
 25 26  2  0
  7 27  1  0
 27 28  1  0
 28 29  1  0
 29 30  2  0
 30 31  1  0
 31 32  2  0
 32 33  1  0
 33 34  1  0
 34 35  2  0
 35 36  1  0
 35 37  1  0
 37 38  2  0
 28 39  2  0
 39 40  1  0
 40  7  1  0
 26 11  1  0
 38 29  1  0
 20 15  1  0
 37 32  1  0
  1 41  1  0
  1 42  1  0
  1 43  1  0
  5 44  1  0
  6 45  1  0
  6 46  1  0
 10 47  1  0
 12 48  1  0
 13 49  1  0
 16 50  1  0
 17 51  1  0
 18 52  1  0
 19 53  1  0
 22 54  1  0
 22 55  1  0
 25 56  1  0
 27 57  1  0
 27 58  1  0
 30 59  1  0
 31 60  1  0
 36 61  1  0
 36 62  1  0
 38 63  1  0
M  END
$$$$
