
     RDKit          3D

 63 65  0  0  0  0  0  0  0  0999 V2000
    2.4222    3.3771   -1.9176 C   0  0  0  0  0  0  0  0  0  0  0  0
    2.4821    3.0691   -0.5234 O   0  0  0  0  0  0  0  0  0  0  0  0
    2.5829    1.7333   -0.2526 C   0  0  0  0  0  0  0  0  0  0  0  0
    2.6095    0.8568   -1.1050 O   0  0  0  0  0  0  0  0  0  0  0  0
    2.6901    1.5278    1.2507 C   0  0  2  0  0  0  0  0  0  0  0  0
    4.1590    1.7127    1.6927 C   0  0  0  0  0  0  0  0  0  0  0  0
    5.1342    0.6463    1.2463 C   0  0  0  0  0  0  0  0  0  0  0  0
    5.6146   -0.3160    2.1446 C   0  0  0  0  0  0  0  0  0  0  0  0
    6.4865   -1.3216    1.7175 C   0  0  0  0  0  0  0  0  0  0  0  0
    6.8921   -1.3807    0.3846 C   0  0  0  0  0  0  0  0  0  0  0  0
    6.4382   -0.4167   -0.5168 C   0  0  0  0  0  0  0  0  0  0  0  0
    6.8137   -0.4784   -1.9549 C   0  0  0  0  0  0  0  0  0  0  0  0
    7.9662   -0.9062   -2.3620 N   0  0  0  0  0  0  0  0  0  0  0  0
    5.9195   -0.0856   -2.9067 N   0  0  0  0  0  0  0  0  0  0  0  0
    5.5794    0.5997   -0.0821 C   0  0  0  0  0  0  0  0  0  0  0  0
    2.0166    0.2055    1.6790 C   0  0  1  0  0  0  0  0  0  0  0  0
    2.0388    0.0123    3.2003 C   0  0  0  0  0  0  0  0  0  0  0  0
    0.6159    0.1687    1.2391 N   0  0  0  0  0  0  0  0  0  0  0  0
   -0.0407   -1.0317    1.0393 C   0  0  0  0  0  0  0  0  0  0  0  0
    0.4825   -2.1289    1.1902 O   0  0  0  0  0  0  0  0  0  0  0  0
   -1.4779   -0.9336    0.6675 C   0  0  0  0  0  0  0  0  0  0  0  0
   -2.3410   -1.9623    1.0548 C   0  0  0  0  0  0  0  0  0  0  0  0
   -3.6981   -1.9045    0.7213 C   0  0  0  0  0  0  0  0  0  0  0  0
   -4.2184   -0.8263   -0.0137 C   0  0  0  0  0  0  0  0  0  0  0  0
   -5.6458   -0.7693   -0.3700 C   0  0  0  0  0  0  0  0  0  0  0  0
   -6.2718   -1.8428   -1.0263 C   0  0  0  0  0  0  0  0  0  0  0  0
   -7.6287   -1.7930   -1.3687 C   0  0  0  0  0  0  0  0  0  0  0  0
   -8.3866   -0.6583   -1.0637 C   0  0  0  0  0  0  0  0  0  0  0  0
   -9.8313   -0.5518   -1.4020 C   0  0  0  0  0  0  0  0  0  0  0  0
  -10.3079   -1.3512   -2.4041 N   0  0  0  0  0  0  0  0  0  0  0  0
  -10.5680    0.2448   -0.8345 O   0  0  0  0  0  0  0  0  0  0  0  0
   -7.7810    0.4116   -0.3970 C   0  0  0  0  0  0  0  0  0  0  0  0
   -6.4246    0.3570   -0.0588 C   0  0  0  0  0  0  0  0  0  0  0  0
   -3.3336    0.1917   -0.4097 C   0  0  0  0  0  0  0  0  0  0  0  0
   -1.9747    0.1402   -0.0782 C   0  0  0  0  0  0  0  0  0  0  0  0
    2.3535    4.4634   -2.0215 H   0  0  0  0  0  0  0  0  0  0  0  0
    3.3309    3.0372   -2.4243 H   0  0  0  0  0  0  0  0  0  0  0  0
    1.5327    2.9282   -2.3704 H   0  0  0  0  0  0  0  0  0  0  0  0
    2.1074    2.3405    1.7106 H   0  0  0  0  0  0  0  0  0  0  0  0
    4.1995    1.8032    2.7855 H   0  0  0  0  0  0  0  0  0  0  0  0
    4.5325    2.6773    1.3211 H   0  0  0  0  0  0  0  0  0  0  0  0
    5.3139   -0.2997    3.1897 H   0  0  0  0  0  0  0  0  0  0  0  0
    6.8359   -2.0712    2.4237 H   0  0  0  0  0  0  0  0  0  0  0  0
    7.5333   -2.1940    0.0574 H   0  0  0  0  0  0  0  0  0  0  0  0
    8.5740   -1.1346   -1.5709 H   0  0  0  0  0  0  0  0  0  0  0  0
    6.1907   -0.4253   -3.8238 H   0  0  0  0  0  0  0  0  0  0  0  0
    4.9422   -0.2683   -2.6948 H   0  0  0  0  0  0  0  0  0  0  0  0
    5.2600    1.3565   -0.7950 H   0  0  0  0  0  0  0  0  0  0  0  0
    2.5300   -0.6436    1.2114 H   0  0  0  0  0  0  0  0  0  0  0  0
    3.0542   -0.0472    3.5951 H   0  0  0  0  0  0  0  0  0  0  0  0
    1.5269   -0.9129    3.4875 H   0  0  0  0  0  0  0  0  0  0  0  0
    1.5254    0.8374    3.7069 H   0  0  0  0  0  0  0  0  0  0  0  0
    0.0460    0.9931    1.3783 H   0  0  0  0  0  0  0  0  0  0  0  0
   -1.9603   -2.8108    1.6204 H   0  0  0  0  0  0  0  0  0  0  0  0
   -4.3513   -2.7114    1.0491 H   0  0  0  0  0  0  0  0  0  0  0  0
   -5.6993   -2.7335   -1.2813 H   0  0  0  0  0  0  0  0  0  0  0  0
   -8.0763   -2.6575   -1.8497 H   0  0  0  0  0  0  0  0  0  0  0  0
  -11.2590   -1.1651   -2.6971 H   0  0  0  0  0  0  0  0  0  0  0  0
   -9.6975   -1.7945   -3.0747 H   0  0  0  0  0  0  0  0  0  0  0  0
   -8.3640    1.2933   -0.1364 H   0  0  0  0  0  0  0  0  0  0  0  0
   -5.9830    1.2014    0.4672 H   0  0  0  0  0  0  0  0  0  0  0  0
   -3.6972    1.0275   -1.0054 H   0  0  0  0  0  0  0  0  0  0  0  0
   -1.3150    0.9245   -0.4386 H   0  0  0  0  0  0  0  0  0  0  0  0
  1  2  1  0
  2  3  1  0
  3  4  2  0
  3  5  1  0
  5  6  1  0
  6  7  1  0
  7  8  2  0
  8  9  1  0
  9 10  2  0
 10 11  1  0
 11 12  1  0
 12 13  2  3
 12 14  1  0
 11 15  2  0
  5 16  1  0
 16 17  1  0
 16 18  1  0
 18 19  1  0
 19 20  2  0
 19 21  1  0
 21 22  2  0
 22 23  1  0
 23 24  2  0
 24 25  1  0
 25 26  2  0
 26 27  1  0
 27 28  2  0
 28 29  1  0
 29 30  1  0
 29 31  2  0
 28 32  1  0
 32 33  2  0
 24 34  1  0
 34 35  2  0
 15  7  1  0
 35 21  1  0
 33 25  1  0
  1 36  1  0
  1 37  1  0
  1 38  1  0
  5 39  1  1
  6 40  1  0
  6 41  1  0
  8 42  1  0
  9 43  1  0
 10 44  1  0
 13 45  1  0
 14 46  1  0
 14 47  1  0
 15 48  1  0
 16 49  1  6
 17 50  1  0
 17 51  1  0
 17 52  1  0
 18 53  1  0
 22 54  1  0
 23 55  1  0
 26 56  1  0
 27 57  1  0
 30 58  1  0
 30 59  1  0
 32 60  1  0
 33 61  1  0
 34 62  1  0
 35 63  1  0
M  END
$$$$
