
     RDKit          3D

 93 97  0  0  0  0  0  0  0  0999 V2000
    8.3179   -1.6049    2.3641 C   0  0  0  0  0  0  0  0  0  0  0  0
    8.4119   -0.9446    0.9742 C   0  0  0  0  0  0  0  0  0  0  0  0
    7.3927   -1.5063    0.1843 N   0  0  0  0  0  0  0  0  0  0  0  0
    7.7225   -2.3587   -0.8867 C   0  0  0  0  0  0  0  0  0  0  0  0
    7.2837   -3.8011   -0.6138 C   0  0  0  0  0  0  0  0  0  0  0  0
    5.8979   -0.7188    0.1192 S   0  0  0  0  0  0  0  0  0  0  0  0
    5.2673   -0.6515    1.4992 O   0  0  0  0  0  0  0  0  0  0  0  0
    4.9743   -1.5409   -0.7713 O   0  0  0  0  0  0  0  0  0  0  0  0
    6.0171    0.8717   -0.5473 C   0  0  0  0  0  0  0  0  0  0  0  0
    7.2242    1.3084   -1.0610 C   0  0  0  0  0  0  0  0  0  0  0  0
    7.3725    2.5920   -1.5981 C   0  0  0  0  0  0  0  0  0  0  0  0
    6.3200    3.4626   -1.6325 C   0  0  0  0  0  0  0  0  0  0  0  0
    5.1158    3.0246   -1.1201 C   0  0  0  0  0  0  0  0  0  0  0  0
    4.9528    1.7516   -0.5833 C   0  0  0  0  0  0  0  0  0  0  0  0
    3.6196    1.4259   -0.1104 C   0  0  0  0  0  0  0  0  0  0  0  0
    3.1626    2.0737    1.0219 C   0  0  0  0  0  0  0  0  0  0  0  0
    1.8905    1.8471    1.5302 C   0  0  0  0  0  0  0  0  0  0  0  0
    1.0682    0.9582    0.8912 C   0  0  0  0  0  0  0  0  0  0  0  0
   -0.2944    0.6567    1.3585 C   0  0  0  0  0  0  0  0  0  0  0  0
   -0.4507    0.1536    2.4793 O   0  0  0  0  0  0  0  0  0  0  0  0
   -1.4259    0.9542    0.4994 N   0  0  0  0  0  0  0  0  0  0  0  0
   -2.7129    0.6399    1.0137 C   0  0  1  0  0  0  0  0  0  0  0  0
   -3.5325    1.7491    1.5522 C   0  0  0  0  0  0  0  0  0  0  0  0
   -3.9477    2.8724    0.7053 C   0  0  0  0  0  0  0  0  0  0  0  0
   -2.8904    3.7214    0.1045 C   0  0  0  0  0  0  0  0  0  0  0  0
   -3.6080    4.7837   -0.6462 N   0  0  0  0  0  0  0  0  0  0  0  0
   -3.6296    5.9431   -0.0956 C   0  0  0  0  0  0  0  0  0  0  0  0
   -2.9695    6.0873    1.1646 N   0  0  0  0  0  0  0  0  0  0  0  0
   -4.2621    7.0718   -0.6622 N   0  0  0  0  0  0  0  0  0  0  0  0
   -3.4687   -0.2133   -0.0904 B   0  0  0  0  0  0  0  0  0  0  0  0
   -4.8494    0.0629   -0.4678 O   0  0  0  0  0  0  0  0  0  0  0  0
   -5.3000   -1.0549   -1.1628 C   0  0  2  0  0  0  0  0  0  0  0  0
   -6.6341   -1.4238   -0.6096 C   0  0  0  0  0  0  0  0  0  0  0  0
   -6.7728   -2.8840   -0.3041 C   0  0  0  0  0  0  0  0  0  0  0  0
   -6.0736   -3.6602   -1.4260 C   0  0  0  0  0  0  0  0  0  0  0  0
   -4.8035   -3.4381   -0.5878 C   0  0  0  0  0  0  0  0  0  0  0  0
   -5.7021   -3.4094    0.6008 C   0  0  0  0  0  0  0  0  0  0  0  0
   -6.0552   -4.8532    0.9796 C   0  0  0  0  0  0  0  0  0  0  0  0
   -5.2902   -2.6065    1.7717 C   0  0  0  0  0  0  0  0  0  0  0  0
   -4.2579   -2.1304   -1.0415 C   0  0  1  0  0  0  0  0  0  0  0  0
   -3.6890   -2.3698   -2.4394 C   0  0  0  0  0  0  0  0  0  0  0  0
   -3.2068   -1.6344   -0.2800 O   0  0  0  0  0  0  0  0  0  0  0  0
    1.4873    0.2985   -0.2343 C   0  0  0  0  0  0  0  0  0  0  0  0
    0.6058   -0.6601   -0.9285 C   0  0  0  0  0  0  0  0  0  0  0  0
    2.7625    0.5464   -0.7171 C   0  0  0  0  0  0  0  0  0  0  0  0
    8.7933   -0.9285    3.0808 H   0  0  0  0  0  0  0  0  0  0  0  0
    8.8122   -2.5952    2.2920 H   0  0  0  0  0  0  0  0  0  0  0  0
    7.2442   -1.8007    2.5534 H   0  0  0  0  0  0  0  0  0  0  0  0
    8.1871    0.1260    1.1824 H   0  0  0  0  0  0  0  0  0  0  0  0
    9.4405   -1.1161    0.6207 H   0  0  0  0  0  0  0  0  0  0  0  0
    7.2028   -2.0615   -1.8361 H   0  0  0  0  0  0  0  0  0  0  0  0
    8.8223   -2.3262   -1.1266 H   0  0  0  0  0  0  0  0  0  0  0  0
    8.2001   -4.4469   -0.5997 H   0  0  0  0  0  0  0  0  0  0  0  0
    6.5530   -4.1434   -1.3620 H   0  0  0  0  0  0  0  0  0  0  0  0
    6.7826   -3.8071    0.3842 H   0  0  0  0  0  0  0  0  0  0  0  0
    8.1184    0.7031   -1.0921 H   0  0  0  0  0  0  0  0  0  0  0  0
    8.3219    2.9279   -1.9988 H   0  0  0  0  0  0  0  0  0  0  0  0
    6.4651    4.4531   -2.0552 H   0  0  0  0  0  0  0  0  0  0  0  0
    4.2935    3.7282   -1.1565 H   0  0  0  0  0  0  0  0  0  0  0  0
    3.7855    2.7798    1.5486 H   0  0  0  0  0  0  0  0  0  0  0  0
    1.5363    2.3683    2.4318 H   0  0  0  0  0  0  0  0  0  0  0  0
   -1.1723    1.3479   -0.4181 H   0  0  0  0  0  0  0  0  0  0  0  0
   -2.5898   -0.0614    1.9271 H   0  0  0  0  0  0  0  0  0  0  0  0
   -2.8960    2.2062    2.3900 H   0  0  0  0  0  0  0  0  0  0  0  0
   -4.3921    1.3242    2.1569 H   0  0  0  0  0  0  0  0  0  0  0  0
   -4.6370    2.5611   -0.1325 H   0  0  0  0  0  0  0  0  0  0  0  0
   -4.5972    3.5796    1.3199 H   0  0  0  0  0  0  0  0  0  0  0  0
   -2.2123    4.1847    0.8192 H   0  0  0  0  0  0  0  0  0  0  0  0
   -2.2717    3.2562   -0.6795 H   0  0  0  0  0  0  0  0  0  0  0  0
   -2.1625    6.7413    1.3113 H   0  0  0  0  0  0  0  0  0  0  0  0
   -3.3031    5.5168    1.9804 H   0  0  0  0  0  0  0  0  0  0  0  0
   -5.2683    7.0947   -0.9637 H   0  0  0  0  0  0  0  0  0  0  0  0
   -3.6784    7.9293   -0.7831 H   0  0  0  0  0  0  0  0  0  0  0  0
   -5.4607   -0.7237   -2.2156 H   0  0  0  0  0  0  0  0  0  0  0  0
   -7.4858   -1.1842   -1.3138 H   0  0  0  0  0  0  0  0  0  0  0  0
   -6.8926   -0.8541    0.3141 H   0  0  0  0  0  0  0  0  0  0  0  0
   -7.8093   -3.1815   -0.1211 H   0  0  0  0  0  0  0  0  0  0  0  0
   -6.3144   -4.7211   -1.4913 H   0  0  0  0  0  0  0  0  0  0  0  0
   -6.0980   -3.1001   -2.3766 H   0  0  0  0  0  0  0  0  0  0  0  0
   -4.0673   -4.2542   -0.6744 H   0  0  0  0  0  0  0  0  0  0  0  0
   -7.1654   -4.9836    0.9498 H   0  0  0  0  0  0  0  0  0  0  0  0
   -5.7851   -5.0316    2.0439 H   0  0  0  0  0  0  0  0  0  0  0  0
   -5.5178   -5.5963    0.3823 H   0  0  0  0  0  0  0  0  0  0  0  0
   -5.6016   -1.5447    1.7762 H   0  0  0  0  0  0  0  0  0  0  0  0
   -5.7460   -3.0609    2.6835 H   0  0  0  0  0  0  0  0  0  0  0  0
   -4.1821   -2.7161    1.9381 H   0  0  0  0  0  0  0  0  0  0  0  0
   -4.4399   -2.1234   -3.2181 H   0  0  0  0  0  0  0  0  0  0  0  0
   -2.7979   -1.7339   -2.6468 H   0  0  0  0  0  0  0  0  0  0  0  0
   -3.3055   -3.4280   -2.5334 H   0  0  0  0  0  0  0  0  0  0  0  0
   -0.2022   -1.0439   -0.2687 H   0  0  0  0  0  0  0  0  0  0  0  0
    0.2147   -0.1416   -1.8244 H   0  0  0  0  0  0  0  0  0  0  0  0
    1.1996   -1.5329   -1.2807 H   0  0  0  0  0  0  0  0  0  0  0  0
    3.0390    0.0226   -1.6161 H   0  0  0  0  0  0  0  0  0  0  0  0
  1  2  1  0
  2  3  1  0
  3  4  1  0
  4  5  1  0
  3  6  1  0
  6  7  2  0
  6  8  2  0
  6  9  1  0
  9 10  2  0
 10 11  1  0
 11 12  2  0
 12 13  1  0
 13 14  2  0
 14 15  1  0
 15 16  2  0
 16 17  1  0
 17 18  2  0
 18 19  1  0
 19 20  2  0
 19 21  1  0
 21 22  1  0
 22 23  1  0
 23 24  1  0
 24 25  1  0
 25 26  1  0
 26 27  2  3
 27 28  1  0
 27 29  1  0
 22 30  1  0
 30 31  1  0
 31 32  1  0
 32 33  1  0
 33 34  1  0
 34 35  1  0
 35 36  1  0
 36 37  1  0
 37 38  1  0
 37 39  1  0
 36 40  1  0
 40 41  1  6
 40 42  1  0
 18 43  1  0
 43 44  1  0
 43 45  2  0
 14  9  1  0
 45 15  1  0
 42 30  1  0
 40 32  1  0
 37 34  1  0
  1 46  1  0
  1 47  1  0
  1 48  1  0
  2 49  1  0
  2 50  1  0
  4 51  1  0
  4 52  1  0
  5 53  1  0
  5 54  1  0
  5 55  1  0
 10 56  1  0
 11 57  1  0
 12 58  1  0
 13 59  1  0
 16 60  1  0
 17 61  1  0
 21 62  1  0
 22 63  1  1
 23 64  1  0
 23 65  1  0
 24 66  1  0
 24 67  1  0
 25 68  1  0
 25 69  1  0
 28 70  1  0
 28 71  1  0
 29 72  1  0
 29 73  1  0
 32 74  1  6
 33 75  1  0
 33 76  1  0
 34 77  1  0
 35 78  1  0
 35 79  1  0
 36 80  1  0
 38 81  1  0
 38 82  1  0
 38 83  1  0
 39 84  1  0
 39 85  1  0
 39 86  1  0
 41 87  1  0
 41 88  1  0
 41 89  1  0
 44 90  1  0
 44 91  1  0
 44 92  1  0
 45 93  1  0
M  END
$$$$
