
     RDKit          3D

 67 70  0  0  0  0  0  0  0  0999 V2000
    5.3429    0.2701    1.8689 C   0  0  0  0  0  0  0  0  0  0  0  0
    4.0407    0.8424    1.7969 O   0  0  0  0  0  0  0  0  0  0  0  0
    3.2101    0.3309    0.8312 C   0  0  0  0  0  0  0  0  0  0  0  0
    1.8644    0.2890    1.2226 C   0  0  0  0  0  0  0  0  0  0  0  0
    0.8694   -0.1959    0.3629 C   0  0  0  0  0  0  0  0  0  0  0  0
   -0.5846   -0.2106    0.8136 C   0  0  0  0  0  0  0  0  0  0  0  0
   -1.3092    0.8619    0.0778 N   0  0  0  0  0  0  0  0  0  0  0  0
   -2.4471    1.4612    0.6365 C   0  0  0  0  0  0  0  0  0  0  0  0
   -2.8934    2.6705    0.0804 C   0  0  0  0  0  0  0  0  0  0  0  0
   -4.0797    3.2777    0.5065 C   0  0  0  0  0  0  0  0  0  0  0  0
   -4.8594    2.6642    1.4867 C   0  0  0  0  0  0  0  0  0  0  0  0
   -6.1285    3.2979    1.9275 C   0  0  0  0  0  0  0  0  0  0  0  0
   -6.9566    3.8325    1.0868 N   0  0  0  0  0  0  0  0  0  0  0  0
   -6.4681    3.3345    3.2435 N   0  0  0  0  0  0  0  0  0  0  0  0
   -4.4497    1.4497    2.0341 C   0  0  0  0  0  0  0  0  0  0  0  0
   -3.2596    0.8517    1.6005 C   0  0  0  0  0  0  0  0  0  0  0  0
   -1.2364   -1.6056    0.5858 C   0  0  0  0  0  0  0  0  0  0  0  0
   -0.9824   -2.5840    1.2860 O   0  0  0  0  0  0  0  0  0  0  0  0
   -2.1142   -1.6454   -0.4832 N   0  0  0  0  0  0  0  0  0  0  0  0
   -3.0369   -2.7370   -0.6676 C   0  0  0  0  0  0  0  0  0  0  0  0
   -4.3114   -2.4919    0.1004 C   0  0  0  0  0  0  0  0  0  0  0  0
   -5.3261   -1.6867   -0.4372 C   0  0  0  0  0  0  0  0  0  0  0  0
   -6.4867   -1.4281    0.2942 C   0  0  0  0  0  0  0  0  0  0  0  0
   -6.6429   -1.9672    1.5699 C   0  0  0  0  0  0  0  0  0  0  0  0
   -5.6370   -2.7604    2.1186 C   0  0  0  0  0  0  0  0  0  0  0  0
   -4.4748   -3.0181    1.3899 C   0  0  0  0  0  0  0  0  0  0  0  0
    1.2481   -0.6099   -0.9201 C   0  0  0  0  0  0  0  0  0  0  0  0
    2.5862   -0.5511   -1.3263 C   0  0  0  0  0  0  0  0  0  0  0  0
    3.5801   -0.0774   -0.4611 C   0  0  0  0  0  0  0  0  0  0  0  0
    4.8950    0.0547   -0.8138 O   0  0  0  0  0  0  0  0  0  0  0  0
    5.3160   -0.4724   -2.0699 C   0  0  0  0  0  0  0  0  0  0  0  0
    6.8114   -0.2954   -2.1873 C   0  0  0  0  0  0  0  0  0  0  0  0
    7.3867    0.9782   -2.0607 C   0  0  0  0  0  0  0  0  0  0  0  0
    8.7661    1.1497   -2.1843 C   0  0  0  0  0  0  0  0  0  0  0  0
    9.5849    0.0515   -2.4392 C   0  0  0  0  0  0  0  0  0  0  0  0
    9.0255   -1.2183   -2.5704 C   0  0  0  0  0  0  0  0  0  0  0  0
    7.6455   -1.3921   -2.4468 C   0  0  0  0  0  0  0  0  0  0  0  0
    6.0343    0.8103    1.2158 H   0  0  0  0  0  0  0  0  0  0  0  0
    5.7011    0.3958    2.8956 H   0  0  0  0  0  0  0  0  0  0  0  0
    5.3421   -0.8039    1.6520 H   0  0  0  0  0  0  0  0  0  0  0  0
    1.6042    0.6356    2.2216 H   0  0  0  0  0  0  0  0  0  0  0  0
   -0.6252   -0.0115    1.8925 H   0  0  0  0  0  0  0  0  0  0  0  0
   -0.6568    1.5746   -0.2497 H   0  0  0  0  0  0  0  0  0  0  0  0
   -2.3147    3.1570   -0.7022 H   0  0  0  0  0  0  0  0  0  0  0  0
   -4.3789    4.2299    0.0764 H   0  0  0  0  0  0  0  0  0  0  0  0
   -6.6204    3.7273    0.1251 H   0  0  0  0  0  0  0  0  0  0  0  0
   -7.4437    3.5705    3.3896 H   0  0  0  0  0  0  0  0  0  0  0  0
   -6.1042    2.6296    3.8686 H   0  0  0  0  0  0  0  0  0  0  0  0
   -5.0622    0.9301    2.7650 H   0  0  0  0  0  0  0  0  0  0  0  0
   -3.0085   -0.1139    2.0303 H   0  0  0  0  0  0  0  0  0  0  0  0
   -2.3827   -0.7241   -0.8227 H   0  0  0  0  0  0  0  0  0  0  0  0
   -3.2524   -2.8116   -1.7391 H   0  0  0  0  0  0  0  0  0  0  0  0
   -2.5730   -3.6808   -0.3599 H   0  0  0  0  0  0  0  0  0  0  0  0
   -5.2147   -1.2499   -1.4270 H   0  0  0  0  0  0  0  0  0  0  0  0
   -7.2678   -0.8022   -0.1302 H   0  0  0  0  0  0  0  0  0  0  0  0
   -7.5485   -1.7669    2.1365 H   0  0  0  0  0  0  0  0  0  0  0  0
   -5.7549   -3.1781    3.1151 H   0  0  0  0  0  0  0  0  0  0  0  0
   -3.6881   -3.6258    1.8349 H   0  0  0  0  0  0  0  0  0  0  0  0
    0.5013   -0.9739   -1.6242 H   0  0  0  0  0  0  0  0  0  0  0  0
    2.8122   -0.8717   -2.3382 H   0  0  0  0  0  0  0  0  0  0  0  0
    4.8392    0.0693   -2.8960 H   0  0  0  0  0  0  0  0  0  0  0  0
    5.0625   -1.5377   -2.1322 H   0  0  0  0  0  0  0  0  0  0  0  0
    6.7573    1.8424   -1.8564 H   0  0  0  0  0  0  0  0  0  0  0  0
    9.2010    2.1402   -2.0794 H   0  0  0  0  0  0  0  0  0  0  0  0
   10.6594    0.1851   -2.5339 H   0  0  0  0  0  0  0  0  0  0  0  0
    9.6650   -2.0748   -2.7680 H   0  0  0  0  0  0  0  0  0  0  0  0
    7.2286   -2.3912   -2.5509 H   0  0  0  0  0  0  0  0  0  0  0  0
  1  2  1  0
  2  3  1  0
  3  4  2  0
  4  5  1  0
  5  6  1  0
  6  7  1  0
  7  8  1  0
  8  9  2  0
  9 10  1  0
 10 11  2  0
 11 12  1  0
 12 13  2  3
 12 14  1  0
 11 15  1  0
 15 16  2  0
  6 17  1  0
 17 18  2  0
 17 19  1  0
 19 20  1  0
 20 21  1  0
 21 22  2  0
 22 23  1  0
 23 24  2  0
 24 25  1  0
 25 26  2  0
  5 27  2  0
 27 28  1  0
 28 29  2  0
 29 30  1  0
 30 31  1  0
 31 32  1  0
 32 33  2  0
 33 34  1  0
 34 35  2  0
 35 36  1  0
 36 37  2  0
 29  3  1  0
 37 32  1  0
 16  8  1  0
 26 21  1  0
  1 38  1  0
  1 39  1  0
  1 40  1  0
  4 41  1  0
  6 42  1  0
  7 43  1  0
  9 44  1  0
 10 45  1  0
 13 46  1  0
 14 47  1  0
 14 48  1  0
 15 49  1  0
 16 50  1  0
 19 51  1  0
 20 52  1  0
 20 53  1  0
 22 54  1  0
 23 55  1  0
 24 56  1  0
 25 57  1  0
 26 58  1  0
 27 59  1  0
 28 60  1  0
 31 61  1  0
 31 62  1  0
 33 63  1  0
 34 64  1  0
 35 65  1  0
 36 66  1  0
 37 67  1  0
M  END
$$$$
