
     RDKit          3D

 31 32  0  0  0  0  0  0  0  0999 V2000
   -5.4953   -0.8265   -0.8430 N   0  0  0  0  0  0  0  0  0  0  0  0
   -4.9820   -0.4714    0.4732 C   0  0  0  0  0  0  0  0  0  0  0  0
   -3.5217   -0.1019    0.4072 C   0  0  0  0  0  0  0  0  0  0  0  0
   -2.5413   -0.9473    0.9467 C   0  0  0  0  0  0  0  0  0  0  0  0
   -1.1887   -0.5989    0.8818 C   0  0  0  0  0  0  0  0  0  0  0  0
   -0.8027    0.5975    0.2641 C   0  0  0  0  0  0  0  0  0  0  0  0
    0.6277    1.0046    0.1759 C   0  0  0  0  0  0  0  0  0  0  0  0
    0.9016    2.1921    0.2980 O   0  0  0  0  0  0  0  0  0  0  0  0
    1.5067   -0.0330   -0.0775 N   0  0  0  0  0  0  0  0  0  0  0  0
    2.9123    0.0390   -0.1721 C   0  0  0  0  0  0  0  0  0  0  0  0
    3.6530    1.1960    0.0741 C   0  0  0  0  0  0  0  0  0  0  0  0
    5.0476    1.1820   -0.0350 C   0  0  0  0  0  0  0  0  0  0  0  0
    5.7130    0.0107   -0.3886 C   0  0  0  0  0  0  0  0  0  0  0  0
    4.9844   -1.1498   -0.6329 C   0  0  0  0  0  0  0  0  0  0  0  0
    3.5912   -1.1356   -0.5238 C   0  0  0  0  0  0  0  0  0  0  0  0
   -1.7753    1.4517   -0.2645 C   0  0  0  0  0  0  0  0  0  0  0  0
   -3.1249    1.0990   -0.2003 C   0  0  0  0  0  0  0  0  0  0  0  0
   -4.9581   -1.6106   -1.2089 H   0  0  0  0  0  0  0  0  0  0  0  0
   -6.4557   -1.1508   -0.7514 H   0  0  0  0  0  0  0  0  0  0  0  0
   -5.5509    0.3735    0.8778 H   0  0  0  0  0  0  0  0  0  0  0  0
   -5.1325   -1.3111    1.1615 H   0  0  0  0  0  0  0  0  0  0  0  0
   -2.8268   -1.8781    1.4322 H   0  0  0  0  0  0  0  0  0  0  0  0
   -0.4537   -1.2532    1.3426 H   0  0  0  0  0  0  0  0  0  0  0  0
    1.1003   -0.9346   -0.2879 H   0  0  0  0  0  0  0  0  0  0  0  0
    3.1756    2.1289    0.3571 H   0  0  0  0  0  0  0  0  0  0  0  0
    5.6104    2.0918    0.1584 H   0  0  0  0  0  0  0  0  0  0  0  0
    6.7964    0.0046   -0.4729 H   0  0  0  0  0  0  0  0  0  0  0  0
    5.4993   -2.0662   -0.9090 H   0  0  0  0  0  0  0  0  0  0  0  0
    3.0473   -2.0553   -0.7210 H   0  0  0  0  0  0  0  0  0  0  0  0
   -1.4841    2.3901   -0.7321 H   0  0  0  0  0  0  0  0  0  0  0  0
   -3.8731    1.7630   -0.6298 H   0  0  0  0  0  0  0  0  0  0  0  0
  1  2  1  0
  2  3  1  0
  3  4  2  0
  4  5  1  0
  5  6  2  0
  6  7  1  0
  7  8  2  0
  7  9  1  0
  9 10  1  0
 10 11  2  0
 11 12  1  0
 12 13  2  0
 13 14  1  0
 14 15  2  0
  6 16  1  0
 16 17  2  0
 17  3  1  0
 15 10  1  0
  1 18  1  0
  1 19  1  0
  2 20  1  0
  2 21  1  0
  4 22  1  0
  5 23  1  0
  9 24  1  0
 11 25  1  0
 12 26  1  0
 13 27  1  0
 14 28  1  0
 15 29  1  0
 16 30  1  0
 17 31  1  0
M  END
$$$$
