
     RDKit          3D

 65 67  0  0  0  0  0  0  0  0999 V2000
   -0.4795   -2.6551    4.9986 C   0  0  0  0  0  0  0  0  0  0  0  0
   -0.8483   -1.3631    4.3197 C   0  0  0  0  0  0  0  0  0  0  0  0
   -2.0456   -0.7973    4.5466 C   0  0  0  0  0  0  0  0  0  0  0  0
   -2.4358    0.4291    3.8998 C   0  0  0  0  0  0  0  0  0  0  0  0
   -1.6309    1.0379    3.0215 C   0  0  0  0  0  0  0  0  0  0  0  0
   -1.9075    2.1849    2.3065 N   0  0  0  0  0  0  0  0  0  0  0  0
   -3.0568    2.9444    2.3060 C   0  0  0  0  0  0  0  0  0  0  0  0
   -4.0548    2.7401    2.9908 O   0  0  0  0  0  0  0  0  0  0  0  0
   -3.0111    4.0936    1.3176 C   0  0  0  0  0  0  0  0  0  0  0  0
   -3.5438    3.6703   -0.0482 C   0  0  0  0  0  0  0  0  0  0  0  0
   -2.6054    2.7609   -0.8038 C   0  0  0  0  0  0  0  0  0  0  0  0
   -2.8597    1.3844   -0.8787 C   0  0  0  0  0  0  0  0  0  0  0  0
   -1.9869    0.5412   -1.5671 C   0  0  0  0  0  0  0  0  0  0  0  0
   -0.8602    1.0651   -2.1972 C   0  0  0  0  0  0  0  0  0  0  0  0
   -0.5930    2.4296   -2.1182 C   0  0  0  0  0  0  0  0  0  0  0  0
   -1.4595    3.2752   -1.4255 C   0  0  0  0  0  0  0  0  0  0  0  0
   -0.2843    0.4166    2.7466 C   0  0  0  0  0  0  0  0  0  0  0  0
    0.4526    0.9382    1.9043 O   0  0  0  0  0  0  0  0  0  0  0  0
    0.0474   -0.7486    3.4404 N   0  0  0  0  0  0  0  0  0  0  0  0
    1.3747   -1.3180    3.1769 C   0  0  0  0  0  0  0  0  0  0  0  0
    1.3908   -2.2421    1.9546 C   0  0  0  0  0  0  0  0  0  0  0  0
    1.8489   -3.3821    2.0061 O   0  0  0  0  0  0  0  0  0  0  0  0
    0.9478   -1.6609    0.7873 N   0  0  0  0  0  0  0  0  0  0  0  0
    0.9869   -2.3365   -0.4913 C   0  0  0  0  0  0  0  0  0  0  0  0
    2.3711   -2.2629   -1.1589 C   0  0  0  0  0  0  0  0  0  0  0  0
    2.8116   -0.8037   -1.3904 C   0  0  0  0  0  0  0  0  0  0  0  0
    3.3250   -0.5630   -2.8077 C   0  0  0  0  0  0  0  0  0  0  0  0
    2.2763   -0.9299   -3.7598 N   0  0  0  0  0  0  0  0  0  0  0  0
    1.9696   -0.2343   -4.8964 C   0  0  0  0  0  0  0  0  0  0  0  0
    1.2437   -0.7233   -5.8431 N   0  0  0  0  0  0  0  0  0  0  0  0
    2.4370    1.0284   -4.9827 N   0  0  0  0  0  0  0  0  0  0  0  0
    1.7492   -2.3018   -3.6287 C   0  0  0  0  0  0  0  0  0  0  0  0
    2.3805   -3.0669   -2.4670 C   0  0  0  0  0  0  0  0  0  0  0  0
   -0.2096   -3.4202    4.2630 H   0  0  0  0  0  0  0  0  0  0  0  0
    0.3586   -2.5071    5.6877 H   0  0  0  0  0  0  0  0  0  0  0  0
   -1.3114   -3.0553    5.5884 H   0  0  0  0  0  0  0  0  0  0  0  0
   -2.7671   -1.2469    5.2219 H   0  0  0  0  0  0  0  0  0  0  0  0
   -3.4212    0.8105    4.1436 H   0  0  0  0  0  0  0  0  0  0  0  0
   -1.1726    2.4360    1.6454 H   0  0  0  0  0  0  0  0  0  0  0  0
   -3.6370    4.8964    1.7238 H   0  0  0  0  0  0  0  0  0  0  0  0
   -1.9926    4.4949    1.2579 H   0  0  0  0  0  0  0  0  0  0  0  0
   -3.7241    4.5625   -0.6613 H   0  0  0  0  0  0  0  0  0  0  0  0
   -4.5208    3.1825    0.0673 H   0  0  0  0  0  0  0  0  0  0  0  0
   -3.7409    0.9586   -0.4028 H   0  0  0  0  0  0  0  0  0  0  0  0
   -2.1952   -0.5250   -1.6220 H   0  0  0  0  0  0  0  0  0  0  0  0
   -0.1897    0.4080   -2.7459 H   0  0  0  0  0  0  0  0  0  0  0  0
    0.2909    2.8378   -2.6009 H   0  0  0  0  0  0  0  0  0  0  0  0
   -1.2381    4.3394   -1.3844 H   0  0  0  0  0  0  0  0  0  0  0  0
    1.7478   -1.8614    4.0493 H   0  0  0  0  0  0  0  0  0  0  0  0
    2.0914   -0.5101    2.9890 H   0  0  0  0  0  0  0  0  0  0  0  0
    0.7621   -0.6590    0.7983 H   0  0  0  0  0  0  0  0  0  0  0  0
    0.2209   -1.8705   -1.1187 H   0  0  0  0  0  0  0  0  0  0  0  0
    0.7007   -3.3833   -0.3357 H   0  0  0  0  0  0  0  0  0  0  0  0
    3.0964   -2.7313   -0.4818 H   0  0  0  0  0  0  0  0  0  0  0  0
    3.5939   -0.5410   -0.6663 H   0  0  0  0  0  0  0  0  0  0  0  0
    1.9801   -0.1142   -1.2020 H   0  0  0  0  0  0  0  0  0  0  0  0
    3.6155    0.4890   -2.8815 H   0  0  0  0  0  0  0  0  0  0  0  0
    4.2348   -1.1454   -3.0045 H   0  0  0  0  0  0  0  0  0  0  0  0
    1.1611   -0.0478   -6.6016 H   0  0  0  0  0  0  0  0  0  0  0  0
    2.3985    1.5285   -4.1062 H   0  0  0  0  0  0  0  0  0  0  0  0
    2.0288    1.5820   -5.7230 H   0  0  0  0  0  0  0  0  0  0  0  0
    1.9324   -2.8705   -4.5480 H   0  0  0  0  0  0  0  0  0  0  0  0
    0.6632   -2.2471   -3.4866 H   0  0  0  0  0  0  0  0  0  0  0  0
    1.8734   -4.0297   -2.3340 H   0  0  0  0  0  0  0  0  0  0  0  0
    3.4197   -3.3107   -2.7242 H   0  0  0  0  0  0  0  0  0  0  0  0
  1  2  1  0
  2  3  2  0
  3  4  1  0
  4  5  2  0
  5  6  1  0
  6  7  1  0
  7  8  2  0
  7  9  1  0
  9 10  1  0
 10 11  1  0
 11 12  2  0
 12 13  1  0
 13 14  2  0
 14 15  1  0
 15 16  2  0
  5 17  1  0
 17 18  2  0
 17 19  1  0
 19 20  1  0
 20 21  1  0
 21 22  2  0
 21 23  1  0
 23 24  1  0
 24 25  1  0
 25 26  1  0
 26 27  1  0
 27 28  1  0
 28 29  1  0
 29 30  2  3
 29 31  1  0
 28 32  1  0
 32 33  1  0
 19  2  1  0
 33 25  1  0
 16 11  1  0
  1 34  1  0
  1 35  1  0
  1 36  1  0
  3 37  1  0
  4 38  1  0
  6 39  1  0
  9 40  1  0
  9 41  1  0
 10 42  1  0
 10 43  1  0
 12 44  1  0
 13 45  1  0
 14 46  1  0
 15 47  1  0
 16 48  1  0
 20 49  1  0
 20 50  1  0
 23 51  1  0
 24 52  1  0
 24 53  1  0
 25 54  1  0
 26 55  1  0
 26 56  1  0
 27 57  1  0
 27 58  1  0
 30 59  1  0
 31 60  1  0
 31 61  1  0
 32 62  1  0
 32 63  1  0
 33 64  1  0
 33 65  1  0
M  END
$$$$
