
     RDKit          3D

 42 43  0  0  0  0  0  0  0  0999 V2000
   -6.0163   -1.0714    1.5239 C   0  0  0  0  0  0  0  0  0  0  0  0
   -4.7986   -1.5869    0.7670 C   0  0  0  0  0  0  0  0  0  0  0  0
   -3.9890   -0.5058    0.0309 C   0  0  0  0  0  0  0  0  0  0  0  0
   -3.5042    0.6120    0.9644 C   0  0  0  0  0  0  0  0  0  0  0  0
   -2.4303    1.4320    0.3382 C   0  0  0  0  0  0  0  0  0  0  0  0
   -2.4242    2.6488   -0.3068 C   0  0  0  0  0  0  0  0  0  0  0  0
   -1.0817    2.8910   -0.6819 C   0  0  0  0  0  0  0  0  0  0  0  0
   -0.3399    1.8081   -0.2452 C   0  0  0  0  0  0  0  0  0  0  0  0
    1.0736    1.5297   -0.3586 C   0  0  0  0  0  0  0  0  0  0  0  0
    1.8895    2.2686   -0.9010 O   0  0  0  0  0  0  0  0  0  0  0  0
    1.3593    0.3038    0.2372 O   0  0  0  0  0  0  0  0  0  0  0  0
    2.7088   -0.0448    0.1702 C   0  0  0  0  0  0  0  0  0  0  0  0
    3.1903   -0.7137   -0.9543 C   0  0  0  0  0  0  0  0  0  0  0  0
    4.5330   -1.0907   -0.9972 C   0  0  0  0  0  0  0  0  0  0  0  0
    5.3729   -0.8137    0.0900 C   0  0  0  0  0  0  0  0  0  0  0  0
    6.8044   -1.2109    0.0253 C   0  0  0  0  0  0  0  0  0  0  0  0
    7.4668   -1.6149    1.0619 N   0  0  0  0  0  0  0  0  0  0  0  0
    7.4784   -1.1504   -1.1574 N   0  0  0  0  0  0  0  0  0  0  0  0
    4.8709   -0.1564    1.2211 C   0  0  0  0  0  0  0  0  0  0  0  0
    3.5287    0.2242    1.2650 C   0  0  0  0  0  0  0  0  0  0  0  0
   -1.1714    0.9151    0.3795 O   0  0  0  0  0  0  0  0  0  0  0  0
   -4.8020    0.0635   -1.1113 C   0  0  0  0  0  0  0  0  0  0  0  0
   -5.4112    1.1200   -1.1283 O   0  0  0  0  0  0  0  0  0  0  0  0
   -4.8254   -0.7537   -2.1829 O   0  0  0  0  0  0  0  0  0  0  0  0
   -5.7299   -0.3833    2.3246 H   0  0  0  0  0  0  0  0  0  0  0  0
   -6.7152   -0.5576    0.8573 H   0  0  0  0  0  0  0  0  0  0  0  0
   -6.5499   -1.9092    1.9848 H   0  0  0  0  0  0  0  0  0  0  0  0
   -5.1342   -2.3450    0.0485 H   0  0  0  0  0  0  0  0  0  0  0  0
   -4.1402   -2.1020    1.4773 H   0  0  0  0  0  0  0  0  0  0  0  0
   -3.1087   -0.9901   -0.4150 H   0  0  0  0  0  0  0  0  0  0  0  0
   -4.3304    1.2710    1.2577 H   0  0  0  0  0  0  0  0  0  0  0  0
   -3.1069    0.1750    1.8894 H   0  0  0  0  0  0  0  0  0  0  0  0
   -3.2863    3.2779   -0.4873 H   0  0  0  0  0  0  0  0  0  0  0  0
   -0.6885    3.7498   -1.2099 H   0  0  0  0  0  0  0  0  0  0  0  0
    2.5326   -0.9387   -1.7884 H   0  0  0  0  0  0  0  0  0  0  0  0
    4.9157   -1.6172   -1.8682 H   0  0  0  0  0  0  0  0  0  0  0  0
    6.8641   -1.6709    1.8876 H   0  0  0  0  0  0  0  0  0  0  0  0
    7.2429   -0.3679   -1.7567 H   0  0  0  0  0  0  0  0  0  0  0  0
    8.4793   -1.2329   -1.0041 H   0  0  0  0  0  0  0  0  0  0  0  0
    5.5200    0.0836    2.0589 H   0  0  0  0  0  0  0  0  0  0  0  0
    3.1324    0.7324    2.1392 H   0  0  0  0  0  0  0  0  0  0  0  0
   -5.3792   -0.2783   -2.8373 H   0  0  0  0  0  0  0  0  0  0  0  0
  1  2  1  0
  2  3  1  0
  3  4  1  0
  4  5  1  0
  5  6  2  0
  6  7  1  0
  7  8  2  0
  8  9  1  0
  9 10  2  0
  9 11  1  0
 11 12  1  0
 12 13  2  0
 13 14  1  0
 14 15  2  0
 15 16  1  0
 16 17  2  3
 16 18  1  0
 15 19  1  0
 19 20  2  0
  8 21  1  0
  3 22  1  0
 22 23  2  0
 22 24  1  0
 21  5  1  0
 20 12  1  0
  1 25  1  0
  1 26  1  0
  1 27  1  0
  2 28  1  0
  2 29  1  0
  3 30  1  0
  4 31  1  0
  4 32  1  0
  6 33  1  0
  7 34  1  0
 13 35  1  0
 14 36  1  0
 17 37  1  0
 18 38  1  0
 18 39  1  0
 19 40  1  0
 20 41  1  0
 24 42  1  0
M  END
$$$$
