
     RDKit          3D

 84 86  0  0  0  0  0  0  0  0999 V2000
   -3.3005   -3.4499   -5.6721 C   0  0  0  0  0  0  0  0  0  0  0  0
   -2.5842   -3.0938   -4.4614 N   0  0  0  0  0  0  0  0  0  0  0  0
   -2.8175   -3.9274   -3.2807 C   0  0  0  0  0  0  0  0  0  0  0  0
   -4.1312   -3.5539   -2.5911 C   0  0  0  0  0  0  0  0  0  0  0  0
   -5.1215   -4.2793   -2.6268 O   0  0  0  0  0  0  0  0  0  0  0  0
   -4.1076   -2.3354   -1.9537 N   0  0  0  0  0  0  0  0  0  0  0  0
   -5.2535   -1.8320   -1.2384 C   0  0  0  0  0  0  0  0  0  0  0  0
   -5.1033   -0.3627   -0.9480 C   0  0  0  0  0  0  0  0  0  0  0  0
   -4.9529    0.0989    0.3655 C   0  0  0  0  0  0  0  0  0  0  0  0
   -4.8146    1.4651    0.6265 C   0  0  0  0  0  0  0  0  0  0  0  0
   -4.8244    2.3955   -0.4213 C   0  0  0  0  0  0  0  0  0  0  0  0
   -4.6570    3.8668   -0.1479 C   0  0  0  0  0  0  0  0  0  0  0  0
   -3.2667    4.2742   -0.3066 N   0  0  0  0  0  0  0  0  0  0  0  0
   -4.9582    1.9313   -1.7366 C   0  0  0  0  0  0  0  0  0  0  0  0
   -5.1013    0.5672   -1.9972 C   0  0  0  0  0  0  0  0  0  0  0  0
   -1.9611   -1.8622   -4.3865 C   0  0  0  0  0  0  0  0  0  0  0  0
   -1.8389   -1.0882   -5.3272 O   0  0  0  0  0  0  0  0  0  0  0  0
   -1.5095   -1.5935   -3.1332 O   0  0  0  0  0  0  0  0  0  0  0  0
   -0.8826   -0.3147   -2.9996 C   0  0  0  0  0  0  0  0  0  0  0  0
   -0.4933   -0.1587   -1.5523 C   0  0  0  0  0  0  0  0  0  0  0  0
   -1.1511    0.7628   -0.7299 C   0  0  0  0  0  0  0  0  0  0  0  0
   -0.7964    0.8921    0.6143 C   0  0  0  0  0  0  0  0  0  0  0  0
    0.2231    0.1025    1.1618 C   0  0  0  0  0  0  0  0  0  0  0  0
    0.6308    0.2752    2.6018 C   0  0  0  0  0  0  0  0  0  0  0  0
    1.2491    1.5608    2.7041 O   0  0  0  0  0  0  0  0  0  0  0  0
    1.8426    1.8039    3.9012 C   0  0  0  0  0  0  0  0  0  0  0  0
    1.8263    1.0144    4.8367 O   0  0  0  0  0  0  0  0  0  0  0  0
    2.4735    3.0347    3.9248 N   0  0  0  0  0  0  0  0  0  0  0  0
    3.3414    3.3555    5.0426 C   0  0  0  0  0  0  0  0  0  0  0  0
    2.5936    3.8580    2.7222 C   0  0  0  0  0  0  0  0  0  0  0  0
    3.7859    3.4046    1.8778 C   0  0  0  0  0  0  0  0  0  0  0  0
    4.9338    3.7680    2.1215 O   0  0  0  0  0  0  0  0  0  0  0  0
    3.4645    2.4952    0.8935 N   0  0  0  0  0  0  0  0  0  0  0  0
    4.4769    1.8168    0.1154 C   0  0  0  0  0  0  0  0  0  0  0  0
    4.5887    0.3615    0.4996 C   0  0  0  0  0  0  0  0  0  0  0  0
    4.5039   -0.6392   -0.4776 C   0  0  0  0  0  0  0  0  0  0  0  0
    4.6223   -1.9874   -0.1284 C   0  0  0  0  0  0  0  0  0  0  0  0
    4.8230   -2.3628    1.2062 C   0  0  0  0  0  0  0  0  0  0  0  0
    4.9766   -3.8144    1.5795 C   0  0  0  0  0  0  0  0  0  0  0  0
    6.3700   -4.2351    1.5062 N   0  0  0  0  0  0  0  0  0  0  0  0
    4.9284   -1.3631    2.1812 C   0  0  0  0  0  0  0  0  0  0  0  0
    4.8173   -0.0157    1.8306 C   0  0  0  0  0  0  0  0  0  0  0  0
    0.8777   -0.8223    0.3408 C   0  0  0  0  0  0  0  0  0  0  0  0
    0.5222   -0.9530   -1.0032 C   0  0  0  0  0  0  0  0  0  0  0  0
   -2.9744   -2.8478   -6.5244 H   0  0  0  0  0  0  0  0  0  0  0  0
   -4.3699   -3.2835   -5.5129 H   0  0  0  0  0  0  0  0  0  0  0  0
   -3.1216   -4.5049   -5.8983 H   0  0  0  0  0  0  0  0  0  0  0  0
   -1.9974   -3.8257   -2.5620 H   0  0  0  0  0  0  0  0  0  0  0  0
   -2.8545   -4.9788   -3.5858 H   0  0  0  0  0  0  0  0  0  0  0  0
   -3.2213   -1.8492   -1.8561 H   0  0  0  0  0  0  0  0  0  0  0  0
   -5.3469   -2.4128   -0.3137 H   0  0  0  0  0  0  0  0  0  0  0  0
   -6.1621   -2.0091   -1.8259 H   0  0  0  0  0  0  0  0  0  0  0  0
   -4.9422   -0.6025    1.1972 H   0  0  0  0  0  0  0  0  0  0  0  0
   -4.6997    1.7984    1.6554 H   0  0  0  0  0  0  0  0  0  0  0  0
   -5.2898    4.4430   -0.8326 H   0  0  0  0  0  0  0  0  0  0  0  0
   -4.9995    4.1037    0.8661 H   0  0  0  0  0  0  0  0  0  0  0  0
   -2.6956    3.7632    0.3628 H   0  0  0  0  0  0  0  0  0  0  0  0
   -3.1817    5.2595   -0.0653 H   0  0  0  0  0  0  0  0  0  0  0  0
   -4.9456    2.6356   -2.5663 H   0  0  0  0  0  0  0  0  0  0  0  0
   -5.2069    0.2300   -3.0268 H   0  0  0  0  0  0  0  0  0  0  0  0
   -1.5785    0.4785   -3.2986 H   0  0  0  0  0  0  0  0  0  0  0  0
    0.0146   -0.2617   -3.6280 H   0  0  0  0  0  0  0  0  0  0  0  0
   -1.9473    1.3888   -1.1294 H   0  0  0  0  0  0  0  0  0  0  0  0
   -1.3189    1.6176    1.2336 H   0  0  0  0  0  0  0  0  0  0  0  0
   -0.2550    0.2314    3.2465 H   0  0  0  0  0  0  0  0  0  0  0  0
    1.3317   -0.5144    2.8990 H   0  0  0  0  0  0  0  0  0  0  0  0
    4.3699    3.0876    4.7844 H   0  0  0  0  0  0  0  0  0  0  0  0
    3.2787    4.4267    5.2539 H   0  0  0  0  0  0  0  0  0  0  0  0
    3.0506    2.8028    5.9405 H   0  0  0  0  0  0  0  0  0  0  0  0
    2.7346    4.9062    3.0073 H   0  0  0  0  0  0  0  0  0  0  0  0
    1.6743    3.8089    2.1286 H   0  0  0  0  0  0  0  0  0  0  0  0
    2.5400    2.0757    0.9113 H   0  0  0  0  0  0  0  0  0  0  0  0
    5.4528    2.3019    0.2226 H   0  0  0  0  0  0  0  0  0  0  0  0
    4.1683    1.9114   -0.9313 H   0  0  0  0  0  0  0  0  0  0  0  0
    4.3454   -0.3769   -1.5216 H   0  0  0  0  0  0  0  0  0  0  0  0
    4.5580   -2.7456   -0.9061 H   0  0  0  0  0  0  0  0  0  0  0  0
    4.5940   -3.9847    2.5924 H   0  0  0  0  0  0  0  0  0  0  0  0
    4.3691   -4.4389    0.9146 H   0  0  0  0  0  0  0  0  0  0  0  0
    6.7226   -4.0379    0.5704 H   0  0  0  0  0  0  0  0  0  0  0  0
    6.9203   -3.6454    2.1300 H   0  0  0  0  0  0  0  0  0  0  0  0
    5.1052   -1.6262    3.2222 H   0  0  0  0  0  0  0  0  0  0  0  0
    4.9180    0.7423    2.6055 H   0  0  0  0  0  0  0  0  0  0  0  0
    1.6746   -1.4456    0.7413 H   0  0  0  0  0  0  0  0  0  0  0  0
    1.0420   -1.6815   -1.6223 H   0  0  0  0  0  0  0  0  0  0  0  0
  1  2  1  0
  2  3  1  0
  3  4  1  0
  4  5  2  0
  4  6  1  0
  6  7  1  0
  7  8  1  0
  8  9  2  0
  9 10  1  0
 10 11  2  0
 11 12  1  0
 12 13  1  0
 11 14  1  0
 14 15  2  0
  2 16  1  0
 16 17  2  0
 16 18  1  0
 18 19  1  0
 19 20  1  0
 20 21  2  0
 21 22  1  0
 22 23  2  0
 23 24  1  0
 24 25  1  0
 25 26  1  0
 26 27  2  0
 26 28  1  0
 28 29  1  0
 28 30  1  0
 30 31  1  0
 31 32  2  0
 31 33  1  0
 33 34  1  0
 34 35  1  0
 35 36  2  0
 36 37  1  0
 37 38  2  0
 38 39  1  0
 39 40  1  0
 38 41  1  0
 41 42  2  0
 23 43  1  0
 43 44  2  0
 15  8  1  0
 44 20  1  0
 42 35  1  0
  1 45  1  0
  1 46  1  0
  1 47  1  0
  3 48  1  0
  3 49  1  0
  6 50  1  0
  7 51  1  0
  7 52  1  0
  9 53  1  0
 10 54  1  0
 12 55  1  0
 12 56  1  0
 13 57  1  0
 13 58  1  0
 14 59  1  0
 15 60  1  0
 19 61  1  0
 19 62  1  0
 21 63  1  0
 22 64  1  0
 24 65  1  0
 24 66  1  0
 29 67  1  0
 29 68  1  0
 29 69  1  0
 30 70  1  0
 30 71  1  0
 33 72  1  0
 34 73  1  0
 34 74  1  0
 36 75  1  0
 37 76  1  0
 39 77  1  0
 39 78  1  0
 40 79  1  0
 40 80  1  0
 41 81  1  0
 42 82  1  0
 43 83  1  0
 44 84  1  0
M  END
$$$$
