
     RDKit          3D

 30 32  0  0  0  0  0  0  0  0999 V2000
    5.6714    0.0388   -0.4610 N   0  0  0  0  0  0  0  0  0  0  0  0
    4.6550   -0.4198    0.1976 C   0  0  0  0  0  0  0  0  0  0  0  0
    4.8959   -1.4231    1.0866 N   0  0  0  0  0  0  0  0  0  0  0  0
    3.2763    0.1108    0.0224 C   0  0  0  0  0  0  0  0  0  0  0  0
    3.0746    1.4738   -0.2398 C   0  0  0  0  0  0  0  0  0  0  0  0
    1.7859    1.9996   -0.3968 C   0  0  0  0  0  0  0  0  0  0  0  0
    0.7270    1.0990   -0.2717 C   0  0  0  0  0  0  0  0  0  0  0  0
   -0.6328    1.2523   -0.3611 N   0  0  0  0  0  0  0  0  0  0  0  0
   -1.2376    0.0324   -0.1496 C   0  0  0  0  0  0  0  0  0  0  0  0
   -2.6885   -0.1947   -0.1724 C   0  0  0  0  0  0  0  0  0  0  0  0
   -3.6197    0.8502   -0.2730 C   0  0  0  0  0  0  0  0  0  0  0  0
   -4.9934    0.5841   -0.2923 C   0  0  0  0  0  0  0  0  0  0  0  0
   -5.4547   -0.7276   -0.2101 C   0  0  0  0  0  0  0  0  0  0  0  0
   -4.5449   -1.7756   -0.1063 C   0  0  0  0  0  0  0  0  0  0  0  0
   -3.1736   -1.5092   -0.0867 C   0  0  0  0  0  0  0  0  0  0  0  0
   -0.3139   -0.8901    0.0640 N   0  0  0  0  0  0  0  0  0  0  0  0
    0.8977   -0.2522   -0.0066 C   0  0  0  0  0  0  0  0  0  0  0  0
    2.1906   -0.7689    0.1465 C   0  0  0  0  0  0  0  0  0  0  0  0
    5.3846    0.7491   -1.1397 H   0  0  0  0  0  0  0  0  0  0  0  0
    4.3417   -1.4146    1.9346 H   0  0  0  0  0  0  0  0  0  0  0  0
    5.8904   -1.5239    1.2649 H   0  0  0  0  0  0  0  0  0  0  0  0
    3.9240    2.1510   -0.3012 H   0  0  0  0  0  0  0  0  0  0  0  0
    1.6274    3.0538   -0.5967 H   0  0  0  0  0  0  0  0  0  0  0  0
   -1.1101    2.1169   -0.5603 H   0  0  0  0  0  0  0  0  0  0  0  0
   -3.3055    1.8873   -0.3308 H   0  0  0  0  0  0  0  0  0  0  0  0
   -5.7047    1.4028   -0.3693 H   0  0  0  0  0  0  0  0  0  0  0  0
   -6.5219   -0.9333   -0.2246 H   0  0  0  0  0  0  0  0  0  0  0  0
   -4.8973   -2.8017   -0.0398 H   0  0  0  0  0  0  0  0  0  0  0  0
   -2.4739   -2.3402   -0.0045 H   0  0  0  0  0  0  0  0  0  0  0  0
    2.3300   -1.8270    0.3371 H   0  0  0  0  0  0  0  0  0  0  0  0
  1  2  2  3
  2  3  1  0
  2  4  1  0
  4  5  2  0
  5  6  1  0
  6  7  2  0
  7  8  1  0
  8  9  1  0
  9 10  1  0
 10 11  2  0
 11 12  1  0
 12 13  2  0
 13 14  1  0
 14 15  2  0
  9 16  2  0
 16 17  1  0
 17 18  2  0
 18  4  1  0
 17  7  1  0
 15 10  1  0
  1 19  1  0
  3 20  1  0
  3 21  1  0
  5 22  1  0
  6 23  1  0
  8 24  1  0
 11 25  1  0
 12 26  1  0
 13 27  1  0
 14 28  1  0
 15 29  1  0
 18 30  1  0
M  END
$$$$
