
     RDKit          3D

 57 59  0  0  0  0  0  0  0  0999 V2000
    3.4513    0.4093    1.5445 C   0  0  0  0  0  0  0  0  0  0  0  0
    2.9403   -0.8203    0.8494 C   0  0  0  0  0  0  0  0  0  0  0  0
    2.0178   -1.5396    1.5451 N   0  0  0  0  0  0  0  0  0  0  0  0
    1.5309   -2.6593    0.9848 C   0  0  0  0  0  0  0  0  0  0  0  0
    0.6134   -3.3850    1.7387 N   0  0  0  0  0  0  0  0  0  0  0  0
    1.9150   -3.1001   -0.2687 C   0  0  0  0  0  0  0  0  0  0  0  0
    2.8384   -2.3489   -0.9868 C   0  0  0  0  0  0  0  0  0  0  0  0
    3.3786   -1.1840   -0.4305 C   0  0  0  0  0  0  0  0  0  0  0  0
    4.3062   -0.3286   -1.2595 C   0  0  0  0  0  0  0  0  0  0  0  0
    3.5381    0.6606   -1.9846 N   0  0  0  0  0  0  0  0  0  0  0  0
    3.0082    0.3661   -3.2300 C   0  0  0  0  0  0  0  0  0  0  0  0
    3.4066   -0.5547   -3.9386 O   0  0  0  0  0  0  0  0  0  0  0  0
    1.7772    1.2103   -3.5818 C   0  0  0  0  0  0  0  0  0  0  0  0
    0.5935    0.5238   -3.0545 N   0  0  0  0  0  0  0  0  0  0  0  0
   -0.2175   -0.2911   -3.8569 C   0  0  0  0  0  0  0  0  0  0  0  0
    0.0445   -0.3909   -5.3354 C   0  0  0  0  0  0  0  0  0  0  0  0
   -1.2307   -0.9847   -3.3027 C   0  0  0  0  0  0  0  0  0  0  0  0
   -1.4791   -0.9544   -1.8830 C   0  0  0  0  0  0  0  0  0  0  0  0
   -0.7287   -0.1722   -1.1061 C   0  0  0  0  0  0  0  0  0  0  0  0
   -0.8921   -0.2721    0.3130 N   0  0  0  0  0  0  0  0  0  0  0  0
   -2.1539    0.7457    0.8635 S   0  0  0  0  0  0  0  0  0  0  0  0
   -1.6881    2.1062    0.7014 O   0  0  0  0  0  0  0  0  0  0  0  0
   -3.3870    0.2768    0.2645 O   0  0  0  0  0  0  0  0  0  0  0  0
   -2.1413    0.3109    2.6065 C   0  0  0  0  0  0  0  0  0  0  0  0
   -3.1886    1.1134    3.3317 C   0  0  0  0  0  0  0  0  0  0  0  0
   -2.8733    2.3642    3.8821 C   0  0  0  0  0  0  0  0  0  0  0  0
   -3.8459    3.1082    4.5515 C   0  0  0  0  0  0  0  0  0  0  0  0
   -5.1420    2.6125    4.6758 C   0  0  0  0  0  0  0  0  0  0  0  0
   -5.4686    1.3741    4.1275 C   0  0  0  0  0  0  0  0  0  0  0  0
   -4.4982    0.6277    3.4575 C   0  0  0  0  0  0  0  0  0  0  0  0
    0.3831    0.6462   -1.6733 C   0  0  0  0  0  0  0  0  0  0  0  0
    1.0876    1.3254   -0.9228 O   0  0  0  0  0  0  0  0  0  0  0  0
    2.9684    0.5314    2.5200 H   0  0  0  0  0  0  0  0  0  0  0  0
    4.5292    0.3291    1.7145 H   0  0  0  0  0  0  0  0  0  0  0  0
    3.2393    1.3062    0.9560 H   0  0  0  0  0  0  0  0  0  0  0  0
    0.4561   -2.8718    2.6004 H   0  0  0  0  0  0  0  0  0  0  0  0
   -0.2440   -3.5439    1.2224 H   0  0  0  0  0  0  0  0  0  0  0  0
    1.5048   -4.0123   -0.6869 H   0  0  0  0  0  0  0  0  0  0  0  0
    3.1263   -2.6671   -1.9874 H   0  0  0  0  0  0  0  0  0  0  0  0
    5.0250    0.2020   -0.6281 H   0  0  0  0  0  0  0  0  0  0  0  0
    4.8849   -0.9474   -1.9546 H   0  0  0  0  0  0  0  0  0  0  0  0
    2.9466    1.2542   -1.4028 H   0  0  0  0  0  0  0  0  0  0  0  0
    1.8640    2.2027   -3.1236 H   0  0  0  0  0  0  0  0  0  0  0  0
    1.7343    1.3633   -4.6627 H   0  0  0  0  0  0  0  0  0  0  0  0
   -0.0720    0.5864   -5.8150 H   0  0  0  0  0  0  0  0  0  0  0  0
    1.0531   -0.7691   -5.5289 H   0  0  0  0  0  0  0  0  0  0  0  0
   -0.6544   -1.0758   -5.8286 H   0  0  0  0  0  0  0  0  0  0  0  0
   -1.8781   -1.6199   -3.9012 H   0  0  0  0  0  0  0  0  0  0  0  0
   -2.2569   -1.5940   -1.4805 H   0  0  0  0  0  0  0  0  0  0  0  0
   -0.0162    0.0605    0.7452 H   0  0  0  0  0  0  0  0  0  0  0  0
   -2.3395   -0.7622    2.6913 H   0  0  0  0  0  0  0  0  0  0  0  0
   -1.1429    0.5205    3.0032 H   0  0  0  0  0  0  0  0  0  0  0  0
   -1.8704    2.7760    3.7844 H   0  0  0  0  0  0  0  0  0  0  0  0
   -3.5937    4.0793    4.9700 H   0  0  0  0  0  0  0  0  0  0  0  0
   -5.8998    3.1953    5.1928 H   0  0  0  0  0  0  0  0  0  0  0  0
   -6.4825    0.9921    4.2151 H   0  0  0  0  0  0  0  0  0  0  0  0
   -4.7775   -0.3311    3.0243 H   0  0  0  0  0  0  0  0  0  0  0  0
  1  2  1  0
  2  3  2  0
  3  4  1  0
  4  5  1  0
  4  6  2  0
  6  7  1  0
  7  8  2  0
  8  9  1  0
  9 10  1  0
 10 11  1  0
 11 12  2  0
 11 13  1  0
 13 14  1  0
 14 15  1  0
 15 16  1  0
 15 17  2  0
 17 18  1  0
 18 19  2  0
 19 20  1  0
 20 21  1  0
 21 22  2  0
 21 23  2  0
 21 24  1  0
 24 25  1  0
 25 26  2  0
 26 27  1  0
 27 28  2  0
 28 29  1  0
 29 30  2  0
 19 31  1  0
 31 32  2  0
  8  2  1  0
 31 14  1  0
 30 25  1  0
  1 33  1  0
  1 34  1  0
  1 35  1  0
  5 36  1  0
  5 37  1  0
  6 38  1  0
  7 39  1  0
  9 40  1  0
  9 41  1  0
 10 42  1  0
 13 43  1  0
 13 44  1  0
 16 45  1  0
 16 46  1  0
 16 47  1  0
 17 48  1  0
 18 49  1  0
 20 50  1  0
 24 51  1  0
 24 52  1  0
 26 53  1  0
 27 54  1  0
 28 55  1  0
 29 56  1  0
 30 57  1  0
M  END
$$$$
