
     RDKit          3D

 55 58  0  0  0  0  0  0  0  0999 V2000
    2.2281    4.2204    1.8879 C   0  0  0  0  0  0  0  0  0  0  0  0
    3.1251    3.2703    2.4501 O   0  0  0  0  0  0  0  0  0  0  0  0
    3.2520    2.0791    1.7914 C   0  0  0  0  0  0  0  0  0  0  0  0
    2.6538    1.7450    0.5776 C   0  0  0  0  0  0  0  0  0  0  0  0
    2.8602    0.4807    0.0075 C   0  0  0  0  0  0  0  0  0  0  0  0
    3.6517   -0.4727    0.6595 C   0  0  0  0  0  0  0  0  0  0  0  0
    3.8577   -1.7816    0.1256 N   0  0  0  0  0  0  0  0  0  0  0  0
    4.8956   -2.5326    0.5892 N   0  0  0  0  0  0  0  0  0  0  0  0
    4.9840   -3.5635   -0.2535 C   0  0  0  0  0  0  0  0  0  0  0  0
    6.0843   -4.5473   -0.1191 C   0  0  0  0  0  0  0  0  0  0  0  0
    3.9228   -3.5656   -1.1728 C   0  0  0  0  0  0  0  0  0  0  0  0
    3.1381   -2.4771   -0.8358 C   0  0  0  0  0  0  0  0  0  0  0  0
    1.8484   -2.1511   -1.3922 C   0  0  0  0  0  0  0  0  0  0  0  0
    1.6561   -2.1716   -2.6016 O   0  0  0  0  0  0  0  0  0  0  0  0
    0.8882   -1.8866   -0.4316 N   0  0  0  0  0  0  0  0  0  0  0  0
   -0.4283   -1.4234   -0.6297 C   0  0  0  0  0  0  0  0  0  0  0  0
   -0.9767   -1.1312   -1.8775 C   0  0  0  0  0  0  0  0  0  0  0  0
   -2.2828   -0.6357   -1.9802 C   0  0  0  0  0  0  0  0  0  0  0  0
   -3.0660   -0.4199   -0.8388 C   0  0  0  0  0  0  0  0  0  0  0  0
   -4.4340    0.1006   -0.9551 C   0  0  0  0  0  0  0  0  0  0  0  0
   -5.4541   -0.7837   -1.3564 C   0  0  0  0  0  0  0  0  0  0  0  0
   -6.7788   -0.3591   -1.4769 C   0  0  0  0  0  0  0  0  0  0  0  0
   -7.1134    0.9616   -1.1977 C   0  0  0  0  0  0  0  0  0  0  0  0
   -6.1240    1.8606   -0.8010 C   0  0  0  0  0  0  0  0  0  0  0  0
   -4.7907    1.4362   -0.6815 C   0  0  0  0  0  0  0  0  0  0  0  0
   -3.5448    2.6018   -0.1990 S   0  0  0  0  0  0  0  0  0  0  0  0
   -4.3250    4.0972   -0.2029 N   0  0  0  0  0  0  0  0  0  0  0  0
   -2.5606    2.7192   -1.2495 O   0  0  0  0  0  0  0  0  0  0  0  0
   -3.2037    2.3738    1.1862 O   0  0  0  0  0  0  0  0  0  0  0  0
   -2.5144   -0.7275    0.4105 C   0  0  0  0  0  0  0  0  0  0  0  0
   -1.2089   -1.2190    0.5137 C   0  0  0  0  0  0  0  0  0  0  0  0
    4.2822   -0.1188    1.8611 C   0  0  0  0  0  0  0  0  0  0  0  0
    4.0757    1.1456    2.4212 C   0  0  0  0  0  0  0  0  0  0  0  0
    2.5779    4.5590    0.9071 H   0  0  0  0  0  0  0  0  0  0  0  0
    1.2107    3.8193    1.8291 H   0  0  0  0  0  0  0  0  0  0  0  0
    2.2048    5.0906    2.5510 H   0  0  0  0  0  0  0  0  0  0  0  0
    2.0264    2.4473    0.0369 H   0  0  0  0  0  0  0  0  0  0  0  0
    2.4109    0.3004   -0.9650 H   0  0  0  0  0  0  0  0  0  0  0  0
    6.0063   -5.0814    0.8333 H   0  0  0  0  0  0  0  0  0  0  0  0
    6.0537   -5.2862   -0.9263 H   0  0  0  0  0  0  0  0  0  0  0  0
    7.0566   -4.0456   -0.1572 H   0  0  0  0  0  0  0  0  0  0  0  0
    3.7042   -4.2979   -1.9389 H   0  0  0  0  0  0  0  0  0  0  0  0
    1.1631   -2.0185    0.5340 H   0  0  0  0  0  0  0  0  0  0  0  0
   -0.4156   -1.2625   -2.7972 H   0  0  0  0  0  0  0  0  0  0  0  0
   -2.6784   -0.4032   -2.9674 H   0  0  0  0  0  0  0  0  0  0  0  0
   -5.2145   -1.8241   -1.5748 H   0  0  0  0  0  0  0  0  0  0  0  0
   -7.5476   -1.0628   -1.7870 H   0  0  0  0  0  0  0  0  0  0  0  0
   -8.1452    1.2926   -1.2901 H   0  0  0  0  0  0  0  0  0  0  0  0
   -6.4109    2.8870   -0.5894 H   0  0  0  0  0  0  0  0  0  0  0  0
   -3.8850    4.6937   -0.9055 H   0  0  0  0  0  0  0  0  0  0  0  0
   -4.2954    4.4870    0.7403 H   0  0  0  0  0  0  0  0  0  0  0  0
   -3.0936   -0.5730    1.3195 H   0  0  0  0  0  0  0  0  0  0  0  0
   -0.8140   -1.4270    1.5052 H   0  0  0  0  0  0  0  0  0  0  0  0
    4.9273   -0.8211    2.3866 H   0  0  0  0  0  0  0  0  0  0  0  0
    4.5606    1.4020    3.3603 H   0  0  0  0  0  0  0  0  0  0  0  0
  1  2  1  0
  2  3  1  0
  3  4  2  0
  4  5  1  0
  5  6  2  0
  6  7  1  0
  7  8  1  0
  8  9  2  0
  9 10  1  0
  9 11  1  0
 11 12  2  0
 12 13  1  0
 13 14  2  0
 13 15  1  0
 15 16  1  0
 16 17  2  0
 17 18  1  0
 18 19  2  0
 19 20  1  0
 20 21  2  0
 21 22  1  0
 22 23  2  0
 23 24  1  0
 24 25  2  0
 25 26  1  0
 26 27  1  0
 26 28  2  0
 26 29  2  0
 19 30  1  0
 30 31  2  0
  6 32  1  0
 32 33  2  0
 33  3  1  0
 12  7  1  0
 31 16  1  0
 25 20  1  0
  1 34  1  0
  1 35  1  0
  1 36  1  0
  4 37  1  0
  5 38  1  0
 10 39  1  0
 10 40  1  0
 10 41  1  0
 11 42  1  0
 15 43  1  0
 17 44  1  0
 18 45  1  0
 21 46  1  0
 22 47  1  0
 23 48  1  0
 24 49  1  0
 27 50  1  0
 27 51  1  0
 30 52  1  0
 31 53  1  0
 32 54  1  0
 33 55  1  0
M  END
$$$$
