
     RDKit          3D

110114  0  0  0  0  0  0  0  0999 V2000
  -15.5635    0.0330    0.2205 C   0  0  0  0  0  0  0  0  0  0  0  0
  -15.4814    0.5051   -1.1601 N   0  0  0  0  0  0  0  0  0  0  0  0
  -14.7956   -0.4520   -2.0366 C   0  0  0  0  0  0  0  0  0  0  0  0
  -13.2770   -0.5071   -1.8360 C   0  0  0  0  0  0  0  0  0  0  0  0
  -12.6535    0.8895   -1.9650 C   0  0  0  0  0  0  0  0  0  0  0  0
  -11.1256    0.8866   -1.7783 C   0  0  0  0  0  0  0  0  0  0  0  0
  -10.6254    0.4174   -0.4138 C   0  0  0  0  0  0  0  0  0  0  0  0
   -9.1763    0.4753   -0.3478 N   0  0  0  0  0  0  0  0  0  0  0  0
   -8.5471    0.3015    0.8609 C   0  0  0  0  0  0  0  0  0  0  0  0
   -9.1637    0.1450    1.9104 O   0  0  0  0  0  0  0  0  0  0  0  0
   -7.1664    0.3199    0.7948 N   0  0  0  0  0  0  0  0  0  0  0  0
   -6.3982    0.7775   -0.3720 C   0  0  0  0  0  0  0  0  0  0  0  0
   -4.9848    1.2563   -0.0171 C   0  0  0  0  0  0  0  0  0  0  0  0
   -4.2552    0.2706    0.7747 N   0  0  0  0  0  0  0  0  0  0  0  0
   -2.9026    0.0920    0.5752 C   0  0  0  0  0  0  0  0  0  0  0  0
   -2.2387    0.7355   -0.2273 O   0  0  0  0  0  0  0  0  0  0  0  0
   -2.3947   -0.8919    1.3665 O   0  0  0  0  0  0  0  0  0  0  0  0
   -0.9740   -1.1586    1.2403 C   0  0  1  0  0  0  0  0  0  0  0  0
   -0.5653   -1.7621    2.5911 C   0  0  0  0  0  0  0  0  0  0  0  0
    0.7592   -2.5119    2.6732 C   0  0  0  0  0  0  0  0  0  0  0  0
    2.0237   -1.7023    2.4099 C   0  0  0  0  0  0  0  0  0  0  0  0
    2.2129   -1.0862    1.0168 C   0  0  1  0  0  0  0  0  0  0  0  0
    3.6238   -0.7542    0.9453 O   0  0  0  0  0  0  0  0  0  0  0  0
    3.9738    0.2384    0.0821 C   0  0  0  0  0  0  0  0  0  0  0  0
    3.1723    0.8394   -0.6224 O   0  0  0  0  0  0  0  0  0  0  0  0
    5.3354    0.4900    0.0927 N   0  0  0  0  0  0  0  0  0  0  0  0
    6.2858   -0.4272    0.7385 C   0  0  0  0  0  0  0  0  0  0  0  0
    7.6078    0.2683    1.1065 C   0  0  0  0  0  0  0  0  0  0  0  0
    8.1411    0.9990   -0.0491 N   0  0  0  0  0  0  0  0  0  0  0  0
    8.9910    0.4082   -0.9752 C   0  0  0  0  0  0  0  0  0  0  0  0
    8.9951    0.7088   -2.1648 O   0  0  0  0  0  0  0  0  0  0  0  0
    9.8234   -0.5419   -0.4444 N   0  0  0  0  0  0  0  0  0  0  0  0
   10.8130   -1.2027   -1.2685 C   0  0  0  0  0  0  0  0  0  0  0  0
   12.1500   -0.5120   -1.1760 C   0  0  0  0  0  0  0  0  0  0  0  0
   12.4299    0.6014   -1.9759 C   0  0  0  0  0  0  0  0  0  0  0  0
   13.6599    1.2580   -1.8736 C   0  0  0  0  0  0  0  0  0  0  0  0
   14.6389    0.8230   -0.9700 C   0  0  0  0  0  0  0  0  0  0  0  0
   15.8643    1.5230   -0.9213 N   0  0  0  0  0  0  0  0  0  0  0  0
   17.0300    1.0909   -0.3775 C   0  0  0  0  0  0  0  0  0  0  0  0
   17.4928   -0.1075   -0.3159 N   0  0  0  0  0  0  0  0  0  0  0  0
   17.8004    2.0922    0.1040 N   0  0  0  0  0  0  0  0  0  0  0  0
   14.3483   -0.2828   -0.1633 C   0  0  0  0  0  0  0  0  0  0  0  0
   13.1178   -0.9425   -0.2610 C   0  0  0  0  0  0  0  0  0  0  0  0
    7.2042    2.0049   -0.5547 C   0  0  0  0  0  0  0  0  0  0  0  0
    5.8786    1.3505   -0.9673 C   0  0  0  0  0  0  0  0  0  0  0  0
    1.8643   -2.0365   -0.1389 C   0  0  0  0  0  0  0  0  0  0  0  0
    0.5005   -1.7740   -0.7848 C   0  0  0  0  0  0  0  0  0  0  0  0
   -0.7476   -2.0944    0.0432 C   0  0  0  0  0  0  0  0  0  0  0  0
   -5.0191   -0.5055    1.7536 C   0  0  0  0  0  0  0  0  0  0  0  0
   -6.4110    0.0752    2.0260 C   0  0  0  0  0  0  0  0  0  0  0  0
  -13.3699    1.8712   -1.0274 C   0  0  0  0  0  0  0  0  0  0  0  0
  -14.8853    1.8434   -1.2557 C   0  0  0  0  0  0  0  0  0  0  0  0
  -16.0847   -0.9299    0.2638 H   0  0  0  0  0  0  0  0  0  0  0  0
  -16.1519    0.7302    0.8274 H   0  0  0  0  0  0  0  0  0  0  0  0
  -14.5856   -0.0890    0.6964 H   0  0  0  0  0  0  0  0  0  0  0  0
  -15.0051   -0.1753   -3.0782 H   0  0  0  0  0  0  0  0  0  0  0  0
  -15.2217   -1.4550   -1.9108 H   0  0  0  0  0  0  0  0  0  0  0  0
  -13.0571   -0.9426   -0.8552 H   0  0  0  0  0  0  0  0  0  0  0  0
  -12.8394   -1.1783   -2.5846 H   0  0  0  0  0  0  0  0  0  0  0  0
  -12.8360    1.2328   -2.9938 H   0  0  0  0  0  0  0  0  0  0  0  0
  -10.7465    1.9000   -1.9665 H   0  0  0  0  0  0  0  0  0  0  0  0
  -10.6792    0.2532   -2.5566 H   0  0  0  0  0  0  0  0  0  0  0  0
  -11.0276    1.0407    0.3910 H   0  0  0  0  0  0  0  0  0  0  0  0
  -10.9146   -0.6199   -0.2172 H   0  0  0  0  0  0  0  0  0  0  0  0
   -8.6872    0.0438   -1.1167 H   0  0  0  0  0  0  0  0  0  0  0  0
   -6.9424    1.5802   -0.8810 H   0  0  0  0  0  0  0  0  0  0  0  0
   -6.3369   -0.0770   -1.0565 H   0  0  0  0  0  0  0  0  0  0  0  0
   -5.0404    2.1677    0.5904 H   0  0  0  0  0  0  0  0  0  0  0  0
   -4.4339    1.5034   -0.9305 H   0  0  0  0  0  0  0  0  0  0  0  0
   -0.4598   -0.2018    1.1082 H   0  0  0  0  0  0  0  0  0  0  0  0
   -1.3546   -2.4550    2.9160 H   0  0  0  0  0  0  0  0  0  0  0  0
   -0.5764   -0.9618    3.3432 H   0  0  0  0  0  0  0  0  0  0  0  0
    0.7349   -3.4002    2.0342 H   0  0  0  0  0  0  0  0  0  0  0  0
    0.8399   -2.9086    3.6946 H   0  0  0  0  0  0  0  0  0  0  0  0
    2.8815   -2.3569    2.6205 H   0  0  0  0  0  0  0  0  0  0  0  0
    2.1022   -0.8994    3.1551 H   0  0  0  0  0  0  0  0  0  0  0  0
    1.6428   -0.1540    0.9600 H   0  0  0  0  0  0  0  0  0  0  0  0
    5.8463   -0.8640    1.6407 H   0  0  0  0  0  0  0  0  0  0  0  0
    6.4699   -1.2427    0.0286 H   0  0  0  0  0  0  0  0  0  0  0  0
    7.4358    1.0031    1.9020 H   0  0  0  0  0  0  0  0  0  0  0  0
    8.3162   -0.4710    1.4881 H   0  0  0  0  0  0  0  0  0  0  0  0
   10.1231   -0.3382    0.4966 H   0  0  0  0  0  0  0  0  0  0  0  0
   10.8974   -2.2321   -0.9024 H   0  0  0  0  0  0  0  0  0  0  0  0
   10.4798   -1.2586   -2.3111 H   0  0  0  0  0  0  0  0  0  0  0  0
   11.6866    0.9658   -2.6842 H   0  0  0  0  0  0  0  0  0  0  0  0
   13.8518    2.1114   -2.5200 H   0  0  0  0  0  0  0  0  0  0  0  0
   15.6986    2.5149   -0.7992 H   0  0  0  0  0  0  0  0  0  0  0  0
   16.8256   -0.7258   -0.7883 H   0  0  0  0  0  0  0  0  0  0  0  0
   17.9816    2.8171   -0.5790 H   0  0  0  0  0  0  0  0  0  0  0  0
   18.6868    1.6920    0.4036 H   0  0  0  0  0  0  0  0  0  0  0  0
   15.0623   -0.6304    0.5802 H   0  0  0  0  0  0  0  0  0  0  0  0
   12.9239   -1.7934    0.3885 H   0  0  0  0  0  0  0  0  0  0  0  0
    7.6383    2.5537   -1.3971 H   0  0  0  0  0  0  0  0  0  0  0  0
    7.0321    2.7245    0.2548 H   0  0  0  0  0  0  0  0  0  0  0  0
    5.1517    2.1248   -1.2349 H   0  0  0  0  0  0  0  0  0  0  0  0
    6.0244    0.7137   -1.8484 H   0  0  0  0  0  0  0  0  0  0  0  0
    2.6154   -1.9305   -0.9328 H   0  0  0  0  0  0  0  0  0  0  0  0
    1.9389   -3.0844    0.1732 H   0  0  0  0  0  0  0  0  0  0  0  0
    0.4536   -0.7316   -1.1243 H   0  0  0  0  0  0  0  0  0  0  0  0
    0.4505   -2.3858   -1.6953 H   0  0  0  0  0  0  0  0  0  0  0  0
   -1.6057   -2.0223   -0.6382 H   0  0  0  0  0  0  0  0  0  0  0  0
   -0.7326   -3.1440    0.3582 H   0  0  0  0  0  0  0  0  0  0  0  0
   -5.1123   -1.5193    1.3455 H   0  0  0  0  0  0  0  0  0  0  0  0
   -4.4511   -0.5730    2.6879 H   0  0  0  0  0  0  0  0  0  0  0  0
   -6.9703   -0.5968    2.6862 H   0  0  0  0  0  0  0  0  0  0  0  0
   -6.3220    1.0409    2.5388 H   0  0  0  0  0  0  0  0  0  0  0  0
  -13.1572    1.6350    0.0208 H   0  0  0  0  0  0  0  0  0  0  0  0
  -12.9987    2.8880   -1.2028 H   0  0  0  0  0  0  0  0  0  0  0  0
  -15.0999    2.2445   -2.2550 H   0  0  0  0  0  0  0  0  0  0  0  0
  -15.3775    2.5294   -0.5552 H   0  0  0  0  0  0  0  0  0  0  0  0
  1  2  1  0
  2  3  1  0
  3  4  1  0
  4  5  1  0
  5  6  1  0
  6  7  1  0
  7  8  1  0
  8  9  1  0
  9 10  2  0
  9 11  1  0
 11 12  1  0
 12 13  1  0
 13 14  1  0
 14 15  1  0
 15 16  2  0
 15 17  1  0
 17 18  1  0
 18 19  1  0
 19 20  1  0
 20 21  1  0
 21 22  1  0
 22 23  1  0
 23 24  1  0
 24 25  2  0
 24 26  1  0
 26 27  1  0
 27 28  1  0
 28 29  1  0
 29 30  1  0
 30 31  2  0
 30 32  1  0
 32 33  1  0
 33 34  1  0
 34 35  2  0
 35 36  1  0
 36 37  2  0
 37 38  1  0
 38 39  1  0
 39 40  2  3
 39 41  1  0
 37 42  1  0
 42 43  2  0
 29 44  1  0
 44 45  1  0
 22 46  1  0
 46 47  1  0
 47 48  1  0
 14 49  1  0
 49 50  1  0
  5 51  1  0
 51 52  1  0
 52  2  1  0
 50 11  1  0
 48 18  1  0
 45 26  1  0
 43 34  1  0
  1 53  1  0
  1 54  1  0
  1 55  1  0
  3 56  1  0
  3 57  1  0
  4 58  1  0
  4 59  1  0
  5 60  1  0
  6 61  1  0
  6 62  1  0
  7 63  1  0
  7 64  1  0
  8 65  1  0
 12 66  1  0
 12 67  1  0
 13 68  1  0
 13 69  1  0
 18 70  1  6
 19 71  1  0
 19 72  1  0
 20 73  1  0
 20 74  1  0
 21 75  1  0
 21 76  1  0
 22 77  1  1
 27 78  1  0
 27 79  1  0
 28 80  1  0
 28 81  1  0
 32 82  1  0
 33 83  1  0
 33 84  1  0
 35 85  1  0
 36 86  1  0
 38 87  1  0
 40 88  1  0
 41 89  1  0
 41 90  1  0
 42 91  1  0
 43 92  1  0
 44 93  1  0
 44 94  1  0
 45 95  1  0
 45 96  1  0
 46 97  1  0
 46 98  1  0
 47 99  1  0
 47100  1  0
 48101  1  0
 48102  1  0
 49103  1  0
 49104  1  0
 50105  1  0
 50106  1  0
 51107  1  0
 51108  1  0
 52109  1  0
 52110  1  0
M  END
$$$$
