
     RDKit          3D

 72 75  0  0  0  0  0  0  0  0999 V2000
   -3.9744   -4.9866    1.7743 C   0  0  0  0  0  0  0  0  0  0  0  0
   -4.1003   -4.1276    0.6282 N   0  0  0  0  0  0  0  0  0  0  0  0
   -3.5109   -2.8842    0.5722 C   0  0  0  0  0  0  0  0  0  0  0  0
   -2.7572   -2.4158    1.4133 O   0  0  0  0  0  0  0  0  0  0  0  0
   -3.9110   -2.0789   -0.6719 C   0  0  0  0  0  0  0  0  0  0  0  0
   -4.8872   -2.4746   -1.3083 O   0  0  0  0  0  0  0  0  0  0  0  0
   -3.1251   -0.8014   -1.0074 C   0  0  0  0  0  0  0  0  0  0  0  0
   -1.8441   -0.6835   -0.3087 N   0  0  0  0  0  0  0  0  0  0  0  0
   -0.7489   -0.0593   -0.8676 C   0  0  0  0  0  0  0  0  0  0  0  0
   -0.7879    0.4800   -1.9704 O   0  0  0  0  0  0  0  0  0  0  0  0
    0.4805   -0.0226    0.0606 C   0  0  2  0  0  0  0  0  0  0  0  0
    0.3415    1.1490    1.0432 C   0  0  0  0  0  0  0  0  0  0  0  0
    1.7507    1.7333    1.1382 C   0  0  0  0  0  0  0  0  0  0  0  0
    2.3147    1.5193   -0.2640 C   0  0  1  0  0  0  0  0  0  0  0  0
    3.8425    1.4477   -0.3044 C   0  0  0  0  0  0  0  0  0  0  0  0
    4.2461    1.0512   -1.6696 N   0  0  0  0  0  0  0  0  0  0  0  0
    5.7678    1.4457   -2.2433 S   0  0  0  0  0  0  0  0  0  0  0  0
    6.1363    2.7300   -1.6825 O   0  0  0  0  0  0  0  0  0  0  0  0
    5.7202    1.2753   -3.6827 O   0  0  0  0  0  0  0  0  0  0  0  0
    6.8974    0.1838   -1.6198 C   0  0  0  0  0  0  0  0  0  0  0  0
    6.8220    0.0102   -0.1268 C   0  0  0  0  0  0  0  0  0  0  0  0
    6.3244   -1.1838    0.4196 C   0  0  0  0  0  0  0  0  0  0  0  0
    6.2609   -1.3594    1.8030 C   0  0  0  0  0  0  0  0  0  0  0  0
    6.7031   -0.3507    2.6556 C   0  0  0  0  0  0  0  0  0  0  0  0
    7.2163    0.8313    2.1265 C   0  0  0  0  0  0  0  0  0  0  0  0
    7.2824    1.0090    0.7437 C   0  0  0  0  0  0  0  0  0  0  0  0
    3.5979   -0.1755   -2.1960 C   0  0  0  0  0  0  0  0  0  0  0  0
    2.3057   -0.6290   -1.5220 C   0  0  0  0  0  0  0  0  0  0  0  0
    1.8348   -1.7487   -1.7256 O   0  0  0  0  0  0  0  0  0  0  0  0
    1.7084    0.2633   -0.6648 N   0  0  0  0  0  0  0  0  0  0  0  0
   -3.9656    0.4862   -0.7913 C   0  0  1  0  0  0  0  0  0  0  0  0
   -5.1646    0.6079   -1.7602 C   0  0  0  0  0  0  0  0  0  0  0  0
   -6.5148    0.4676   -1.0605 C   0  0  0  0  0  0  0  0  0  0  0  0
   -6.7061    1.4825    0.0772 C   0  0  2  0  0  0  0  0  0  0  0  0
   -7.3319    2.7084   -0.4194 N   0  0  0  0  0  0  0  0  0  0  0  0
   -5.3919    1.8244    0.7985 C   0  0  0  0  0  0  0  0  0  0  0  0
   -4.3756    0.6924    0.6822 C   0  0  0  0  0  0  0  0  0  0  0  0
   -4.7267   -4.6944    2.5114 H   0  0  0  0  0  0  0  0  0  0  0  0
   -4.1491   -6.0173    1.4575 H   0  0  0  0  0  0  0  0  0  0  0  0
   -2.9784   -4.8932    2.2150 H   0  0  0  0  0  0  0  0  0  0  0  0
   -4.8147   -4.3182   -0.0721 H   0  0  0  0  0  0  0  0  0  0  0  0
   -2.8837   -0.8854   -2.0754 H   0  0  0  0  0  0  0  0  0  0  0  0
   -1.7643   -1.0986    0.6207 H   0  0  0  0  0  0  0  0  0  0  0  0
    0.5953   -0.9837    0.5744 H   0  0  0  0  0  0  0  0  0  0  0  0
   -0.3477    1.9129    0.6620 H   0  0  0  0  0  0  0  0  0  0  0  0
   -0.0359    0.8237    2.0178 H   0  0  0  0  0  0  0  0  0  0  0  0
    2.3255    1.1692    1.8834 H   0  0  0  0  0  0  0  0  0  0  0  0
    1.7510    2.7861    1.4351 H   0  0  0  0  0  0  0  0  0  0  0  0
    1.9412    2.2876   -0.9531 H   0  0  0  0  0  0  0  0  0  0  0  0
    4.1976    0.7081    0.4172 H   0  0  0  0  0  0  0  0  0  0  0  0
    4.2525    2.4253   -0.0349 H   0  0  0  0  0  0  0  0  0  0  0  0
    6.6666   -0.7472   -2.1476 H   0  0  0  0  0  0  0  0  0  0  0  0
    7.9085    0.4859   -1.9139 H   0  0  0  0  0  0  0  0  0  0  0  0
    5.9821   -1.9909   -0.2256 H   0  0  0  0  0  0  0  0  0  0  0  0
    5.8728   -2.2875    2.2159 H   0  0  0  0  0  0  0  0  0  0  0  0
    6.6587   -0.4897    3.7329 H   0  0  0  0  0  0  0  0  0  0  0  0
    7.5727    1.6151    2.7907 H   0  0  0  0  0  0  0  0  0  0  0  0
    7.6950    1.9390    0.3533 H   0  0  0  0  0  0  0  0  0  0  0  0
    3.3594   -0.0176   -3.2536 H   0  0  0  0  0  0  0  0  0  0  0  0
    4.2972   -1.0137   -2.1107 H   0  0  0  0  0  0  0  0  0  0  0  0
   -3.3054    1.3293   -1.0460 H   0  0  0  0  0  0  0  0  0  0  0  0
   -5.0899   -0.1176   -2.5779 H   0  0  0  0  0  0  0  0  0  0  0  0
   -5.1258    1.5951   -2.2398 H   0  0  0  0  0  0  0  0  0  0  0  0
   -7.3253    0.5497   -1.7957 H   0  0  0  0  0  0  0  0  0  0  0  0
   -6.5986   -0.5439   -0.6440 H   0  0  0  0  0  0  0  0  0  0  0  0
   -7.4004    1.0388    0.8012 H   0  0  0  0  0  0  0  0  0  0  0  0
   -7.4094    3.3885    0.3357 H   0  0  0  0  0  0  0  0  0  0  0  0
   -6.7411    3.1388   -1.1303 H   0  0  0  0  0  0  0  0  0  0  0  0
   -5.5994    2.0376    1.8543 H   0  0  0  0  0  0  0  0  0  0  0  0
   -4.9415    2.7374    0.3857 H   0  0  0  0  0  0  0  0  0  0  0  0
   -4.8049   -0.2214    1.1085 H   0  0  0  0  0  0  0  0  0  0  0  0
   -3.4903    0.9354    1.2816 H   0  0  0  0  0  0  0  0  0  0  0  0
  1  2  1  0
  2  3  1  0
  3  4  2  0
  3  5  1  0
  5  6  2  0
  5  7  1  0
  7  8  1  0
  8  9  1  0
  9 10  2  0
  9 11  1  0
 11 12  1  0
 12 13  1  0
 13 14  1  0
 14 15  1  0
 15 16  1  0
 16 17  1  0
 17 18  2  0
 17 19  2  0
 17 20  1  0
 20 21  1  0
 21 22  2  0
 22 23  1  0
 23 24  2  0
 24 25  1  0
 25 26  2  0
 16 27  1  0
 27 28  1  0
 28 29  2  0
 28 30  1  0
  7 31  1  0
 31 32  1  0
 32 33  1  0
 33 34  1  0
 34 35  1  0
 34 36  1  0
 36 37  1  0
 30 11  1  0
 37 31  1  0
 30 14  1  0
 26 21  1  0
  1 38  1  0
  1 39  1  0
  1 40  1  0
  2 41  1  0
  7 42  1  0
  8 43  1  0
 11 44  1  1
 12 45  1  0
 12 46  1  0
 13 47  1  0
 13 48  1  0
 14 49  1  6
 15 50  1  0
 15 51  1  0
 20 52  1  0
 20 53  1  0
 22 54  1  0
 23 55  1  0
 24 56  1  0
 25 57  1  0
 26 58  1  0
 27 59  1  0
 27 60  1  0
 31 61  1  6
 32 62  1  0
 32 63  1  0
 33 64  1  0
 33 65  1  0
 34 66  1  1
 35 67  1  0
 35 68  1  0
 36 69  1  0
 36 70  1  0
 37 71  1  0
 37 72  1  0
M  END
$$$$
