
     RDKit          3D

 62 66  0  0  0  0  0  0  0  0999 V2000
    7.1525    4.8675   -0.5403 C   0  0  0  0  0  0  0  0  0  0  0  0
    5.9145    4.4817   -1.1236 O   0  0  0  0  0  0  0  0  0  0  0  0
    5.4464    3.2364   -0.8082 C   0  0  0  0  0  0  0  0  0  0  0  0
    6.0933    2.2925   -0.0146 C   0  0  0  0  0  0  0  0  0  0  0  0
    5.4966    1.0480    0.2250 C   0  0  0  0  0  0  0  0  0  0  0  0
    4.2354    0.7353   -0.3113 C   0  0  0  0  0  0  0  0  0  0  0  0
    3.6815   -0.5562   -0.0627 N   0  0  0  0  0  0  0  0  0  0  0  0
    4.5399   -1.5602    0.2815 N   0  0  0  0  0  0  0  0  0  0  0  0
    3.8579   -2.7040    0.1367 C   0  0  0  0  0  0  0  0  0  0  0  0
    4.5190   -4.0091    0.2907 C   0  0  0  0  0  0  0  0  0  0  0  0
    4.0168   -5.0209   -0.4899 N   0  0  0  0  0  0  0  0  0  0  0  0
    5.4793   -4.2278    1.0230 O   0  0  0  0  0  0  0  0  0  0  0  0
    2.4998   -2.4204   -0.1312 C   0  0  0  0  0  0  0  0  0  0  0  0
    2.3865   -1.0393   -0.1566 C   0  0  0  0  0  0  0  0  0  0  0  0
    1.1246   -0.3318   -0.2112 C   0  0  0  0  0  0  0  0  0  0  0  0
    1.0180    0.8888   -0.1779 O   0  0  0  0  0  0  0  0  0  0  0  0
   -0.0231   -1.1673   -0.2869 N   0  0  0  0  0  0  0  0  0  0  0  0
   -1.3377   -0.4873   -0.2760 C   0  0  0  0  0  0  0  0  0  0  0  0
   -2.4554   -1.2863   -0.9548 C   0  0  0  0  0  0  0  0  0  0  0  0
   -3.7322   -0.4447   -1.0514 C   0  0  0  0  0  0  0  0  0  0  0  0
   -3.9693    0.3721    0.1385 N   0  0  0  0  0  0  0  0  0  0  0  0
   -5.3226    0.7482    0.3080 N   0  0  0  0  0  0  0  0  0  0  0  0
   -6.2509   -0.1595    0.9791 C   0  0  0  0  0  0  0  0  0  0  0  0
   -7.6936    0.1898    0.6449 C   0  0  0  0  0  0  0  0  0  0  0  0
   -7.9535    1.5247    1.0758 O   0  0  0  0  0  0  0  0  0  0  0  0
   -7.1289    2.4475    0.3755 C   0  0  0  0  0  0  0  0  0  0  0  0
   -5.6457    2.1020    0.1317 C   0  0  0  0  0  0  0  0  0  0  0  0
   -4.8566    2.9647   -0.2564 O   0  0  0  0  0  0  0  0  0  0  0  0
   -3.2762   -0.0565    1.3457 C   0  0  0  0  0  0  0  0  0  0  0  0
   -1.7584   -0.0379    1.1374 C   0  0  0  0  0  0  0  0  0  0  0  0
    0.0737   -2.5488    0.2236 C   0  0  0  0  0  0  0  0  0  0  0  0
    1.3167   -3.2982   -0.2744 C   0  0  0  0  0  0  0  0  0  0  0  0
    3.6063    1.6743   -1.1303 C   0  0  0  0  0  0  0  0  0  0  0  0
    4.2074    2.9171   -1.3664 C   0  0  0  0  0  0  0  0  0  0  0  0
    7.3719    5.8886   -0.8667 H   0  0  0  0  0  0  0  0  0  0  0  0
    7.0903    4.8737    0.5530 H   0  0  0  0  0  0  0  0  0  0  0  0
    7.9686    4.2249   -0.8869 H   0  0  0  0  0  0  0  0  0  0  0  0
    7.0627    2.4846    0.4324 H   0  0  0  0  0  0  0  0  0  0  0  0
    6.0291    0.3310    0.8492 H   0  0  0  0  0  0  0  0  0  0  0  0
    3.5260   -4.7863   -1.3407 H   0  0  0  0  0  0  0  0  0  0  0  0
    4.6032   -5.8456   -0.5140 H   0  0  0  0  0  0  0  0  0  0  0  0
   -1.2127    0.4247   -0.8776 H   0  0  0  0  0  0  0  0  0  0  0  0
   -2.1464   -1.6067   -1.9568 H   0  0  0  0  0  0  0  0  0  0  0  0
   -2.6813   -2.1961   -0.3858 H   0  0  0  0  0  0  0  0  0  0  0  0
   -3.6610    0.2234   -1.9182 H   0  0  0  0  0  0  0  0  0  0  0  0
   -4.5700   -1.1258   -1.2461 H   0  0  0  0  0  0  0  0  0  0  0  0
   -6.0847   -0.0480    2.0570 H   0  0  0  0  0  0  0  0  0  0  0  0
   -6.0333   -1.1912    0.6853 H   0  0  0  0  0  0  0  0  0  0  0  0
   -8.3775   -0.4765    1.1794 H   0  0  0  0  0  0  0  0  0  0  0  0
   -7.8987    0.1013   -0.4286 H   0  0  0  0  0  0  0  0  0  0  0  0
   -7.1578    3.3882    0.9352 H   0  0  0  0  0  0  0  0  0  0  0  0
   -7.5826    2.6295   -0.6059 H   0  0  0  0  0  0  0  0  0  0  0  0
   -3.5134    0.6074    2.1863 H   0  0  0  0  0  0  0  0  0  0  0  0
   -3.5991   -1.0638    1.6385 H   0  0  0  0  0  0  0  0  0  0  0  0
   -1.3778    0.9776    1.3082 H   0  0  0  0  0  0  0  0  0  0  0  0
   -1.2974   -0.6652    1.9093 H   0  0  0  0  0  0  0  0  0  0  0  0
   -0.8080   -3.1224   -0.0701 H   0  0  0  0  0  0  0  0  0  0  0  0
    0.0922   -2.4869    1.3187 H   0  0  0  0  0  0  0  0  0  0  0  0
    1.1927   -3.5565   -1.3329 H   0  0  0  0  0  0  0  0  0  0  0  0
    1.4304   -4.2296    0.2894 H   0  0  0  0  0  0  0  0  0  0  0  0
    2.6702    1.4698   -1.6383 H   0  0  0  0  0  0  0  0  0  0  0  0
    3.7023    3.6415   -2.0015 H   0  0  0  0  0  0  0  0  0  0  0  0
  1  2  1  0
  2  3  1  0
  3  4  2  0
  4  5  1  0
  5  6  2  0
  6  7  1  0
  7  8  1  0
  8  9  2  0
  9 10  1  0
 10 11  1  0
 10 12  2  0
  9 13  1  0
 13 14  2  0
 14 15  1  0
 15 16  2  0
 15 17  1  0
 17 18  1  0
 18 19  1  0
 19 20  1  0
 20 21  1  0
 21 22  1  0
 22 23  1  0
 23 24  1  0
 24 25  1  0
 25 26  1  0
 26 27  1  0
 27 28  2  0
 21 29  1  0
 29 30  1  0
 17 31  1  0
 31 32  1  0
  6 33  1  0
 33 34  2  0
 34  3  1  0
 14  7  1  0
 30 18  1  0
 32 13  1  0
 27 22  1  0
  1 35  1  0
  1 36  1  0
  1 37  1  0
  4 38  1  0
  5 39  1  0
 11 40  1  0
 11 41  1  0
 18 42  1  0
 19 43  1  0
 19 44  1  0
 20 45  1  0
 20 46  1  0
 23 47  1  0
 23 48  1  0
 24 49  1  0
 24 50  1  0
 26 51  1  0
 26 52  1  0
 29 53  1  0
 29 54  1  0
 30 55  1  0
 30 56  1  0
 31 57  1  0
 31 58  1  0
 32 59  1  0
 32 60  1  0
 33 61  1  0
 34 62  1  0
M  END
$$$$
