
     RDKit          3D

 61 64  0  0  0  0  0  0  0  0999 V2000
    2.9493    2.7609    0.4015 C   0  0  0  0  0  0  0  0  0  0  0  0
    3.1339    1.5111   -0.4107 C   0  0  0  0  0  0  0  0  0  0  0  0
    2.7318    1.5985   -1.7063 N   0  0  0  0  0  0  0  0  0  0  0  0
    2.9095    0.5334   -2.5062 C   0  0  0  0  0  0  0  0  0  0  0  0
    2.5079    0.6776   -3.8292 N   0  0  0  0  0  0  0  0  0  0  0  0
    3.4490   -0.6569   -2.0553 C   0  0  0  0  0  0  0  0  0  0  0  0
    3.8141   -0.7603   -0.7169 C   0  0  0  0  0  0  0  0  0  0  0  0
    3.6661    0.3383    0.1377 C   0  0  0  0  0  0  0  0  0  0  0  0
    3.9740    0.1855    1.6069 C   0  0  0  0  0  0  0  0  0  0  0  0
    2.7606   -0.1492    2.3230 N   0  0  0  0  0  0  0  0  0  0  0  0
    2.3711   -1.4700    2.4695 C   0  0  0  0  0  0  0  0  0  0  0  0
    3.1282   -2.4243    2.3145 O   0  0  0  0  0  0  0  0  0  0  0  0
    0.8644   -1.6352    2.6973 C   0  0  0  0  0  0  0  0  0  0  0  0
    0.2329   -1.7913    1.3827 N   0  0  0  0  0  0  0  0  0  0  0  0
   -0.0815   -3.0574    0.8582 C   0  0  0  0  0  0  0  0  0  0  0  0
    0.0884   -4.2597    1.7064 C   0  0  0  0  0  0  0  0  0  0  0  0
   -0.8783   -4.5044    2.8428 C   0  0  0  0  0  0  0  0  0  0  0  0
   -0.9068   -5.3966    1.6420 C   0  0  0  0  0  0  0  0  0  0  0  0
   -0.5026   -3.1427   -0.4219 C   0  0  0  0  0  0  0  0  0  0  0  0
   -0.6090   -1.9896   -1.2770 C   0  0  0  0  0  0  0  0  0  0  0  0
   -0.3385   -0.7819   -0.7823 C   0  0  0  0  0  0  0  0  0  0  0  0
   -0.2604    0.2943   -1.7087 N   0  0  0  0  0  0  0  0  0  0  0  0
   -1.7267    1.0820   -2.0224 S   0  0  0  0  0  0  0  0  0  0  0  0
   -2.7241    0.0712   -2.3107 O   0  0  0  0  0  0  0  0  0  0  0  0
   -1.3990    2.1081   -2.9916 O   0  0  0  0  0  0  0  0  0  0  0  0
   -2.1088    1.8709   -0.4455 C   0  0  0  0  0  0  0  0  0  0  0  0
   -3.3467    2.7181   -0.6047 C   0  0  0  0  0  0  0  0  0  0  0  0
   -3.2422    4.0733   -0.9535 C   0  0  0  0  0  0  0  0  0  0  0  0
   -4.3890    4.8563   -1.1043 C   0  0  0  0  0  0  0  0  0  0  0  0
   -5.6460    4.2892   -0.9100 C   0  0  0  0  0  0  0  0  0  0  0  0
   -7.0580    5.2549   -1.0938 Cl  0  0  0  0  0  0  0  0  0  0  0  0
   -5.7666    2.9441   -0.5699 C   0  0  0  0  0  0  0  0  0  0  0  0
   -4.6207    2.1598   -0.4188 C   0  0  0  0  0  0  0  0  0  0  0  0
    0.0911   -0.6159    0.6349 C   0  0  0  0  0  0  0  0  0  0  0  0
    0.3173    0.5156    1.0711 O   0  0  0  0  0  0  0  0  0  0  0  0
    2.2675    2.5863    1.2380 H   0  0  0  0  0  0  0  0  0  0  0  0
    2.5221    3.5615   -0.2120 H   0  0  0  0  0  0  0  0  0  0  0  0
    3.9129    3.1130    0.7820 H   0  0  0  0  0  0  0  0  0  0  0  0
    2.1049    1.6066   -3.9297 H   0  0  0  0  0  0  0  0  0  0  0  0
    1.8384   -0.0363   -4.0951 H   0  0  0  0  0  0  0  0  0  0  0  0
    3.5767   -1.4976   -2.7280 H   0  0  0  0  0  0  0  0  0  0  0  0
    4.2044   -1.7042   -0.3400 H   0  0  0  0  0  0  0  0  0  0  0  0
    4.3655    1.1173    2.0261 H   0  0  0  0  0  0  0  0  0  0  0  0
    4.7364   -0.5851    1.7671 H   0  0  0  0  0  0  0  0  0  0  0  0
    1.9958    0.5124    2.2069 H   0  0  0  0  0  0  0  0  0  0  0  0
    0.6949   -2.4802    3.3663 H   0  0  0  0  0  0  0  0  0  0  0  0
    0.4607   -0.7479    3.1989 H   0  0  0  0  0  0  0  0  0  0  0  0
    1.1275   -4.5423    1.8607 H   0  0  0  0  0  0  0  0  0  0  0  0
   -1.7106   -3.8235    2.9825 H   0  0  0  0  0  0  0  0  0  0  0  0
   -0.4805   -4.9109    3.7660 H   0  0  0  0  0  0  0  0  0  0  0  0
   -1.7745   -5.3277    0.9960 H   0  0  0  0  0  0  0  0  0  0  0  0
   -0.5243   -6.4060    1.7501 H   0  0  0  0  0  0  0  0  0  0  0  0
   -0.7332   -4.1045   -0.8716 H   0  0  0  0  0  0  0  0  0  0  0  0
   -0.8602   -2.1421   -2.3218 H   0  0  0  0  0  0  0  0  0  0  0  0
    0.4599    0.9882   -1.4599 H   0  0  0  0  0  0  0  0  0  0  0  0
   -2.2752    1.0939    0.3053 H   0  0  0  0  0  0  0  0  0  0  0  0
   -1.2506    2.4844   -0.1550 H   0  0  0  0  0  0  0  0  0  0  0  0
   -2.2677    4.5286   -1.1234 H   0  0  0  0  0  0  0  0  0  0  0  0
   -4.2942    5.9034   -1.3796 H   0  0  0  0  0  0  0  0  0  0  0  0
   -6.7476    2.4985   -0.4277 H   0  0  0  0  0  0  0  0  0  0  0  0
   -4.7331    1.1065   -0.1665 H   0  0  0  0  0  0  0  0  0  0  0  0
  1  2  1  0
  2  3  2  0
  3  4  1  0
  4  5  1  0
  4  6  2  0
  6  7  1  0
  7  8  2  0
  8  9  1  0
  9 10  1  0
 10 11  1  0
 11 12  2  0
 11 13  1  0
 13 14  1  0
 14 15  1  0
 15 16  1  0
 16 17  1  0
 17 18  1  0
 15 19  2  0
 19 20  1  0
 20 21  2  0
 21 22  1  0
 22 23  1  0
 23 24  2  0
 23 25  2  0
 23 26  1  0
 26 27  1  0
 27 28  2  0
 28 29  1  0
 29 30  2  0
 30 31  1  0
 30 32  1  0
 32 33  2  0
 21 34  1  0
 34 35  2  0
  8  2  1  0
 34 14  1  0
 18 16  1  0
 33 27  1  0
  1 36  1  0
  1 37  1  0
  1 38  1  0
  5 39  1  0
  5 40  1  0
  6 41  1  0
  7 42  1  0
  9 43  1  0
  9 44  1  0
 10 45  1  0
 13 46  1  0
 13 47  1  0
 16 48  1  0
 17 49  1  0
 17 50  1  0
 18 51  1  0
 18 52  1  0
 19 53  1  0
 20 54  1  0
 22 55  1  0
 26 56  1  0
 26 57  1  0
 28 58  1  0
 29 59  1  0
 32 60  1  0
 33 61  1  0
M  END
$$$$
